<?xml version="1.0" encoding="UTF-8"?>

<!-- generated on 2022-03-21 10:24:37 by Eclipse SUMO netedit Version 1.12.0
<configuration xmlns:xsi="http://www.w3.org/2001/XMLSchema-instance" xsi:noNamespaceSchemaLocation="http://sumo.dlr.de/xsd/netconvertConfiguration.xsd">

    <output>
        <output-file value="/home/nando/Dev/SMARTS/baselines/marl_benchmark/scenarios/custom/intersection/test1/map.net.xml"/>
    </output>

    <processing>
        <offset.disable-normalization value="true"/>
    </processing>

    <junctions>
        <no-turnarounds value="true"/>
    </junctions>

    <report>
        <aggregate-warnings value="5"/>
    </report>

</configuration>
-->

<net version="1.9" junctionCornerDetail="5" limitTurnSpeed="5.50" xmlns:xsi="http://www.w3.org/2001/XMLSchema-instance" xsi:noNamespaceSchemaLocation="http://sumo.dlr.de/xsd/net_file.xsd">

    <location netOffset="0.00,0.00" convBoundary="0.00,0.00,200.00,200.00" origBoundary="10000000000.00,10000000000.00,-10000000000.00,-10000000000.00" projParameter="!"/>

    <edge id="E0" from="J0" to="J1" priority="-1" length="100.00">
        <lane id="E0_0" index="0" speed="13.89" length="100.00" shape="0.00,95.20 92.10,95.20"/>
        <lane id="E0_1" index="1" speed="13.89" length="100.00" shape="0.00,98.40 92.10,98.40"/>
    </edge>
    <edge id="E1" from="J2" to="J1" priority="-1">
        <lane id="E1_0" index="0" speed="13.89" length="92.10" shape="104.80,0.00 104.80,92.10"/>
        <lane id="E1_1" index="1" speed="13.89" length="92.10" shape="101.60,0.00 101.60,92.10"/>
    </edge>
    <edge id="E2" from="J3" to="J1" priority="-1">
        <lane id="E2_0" index="0" speed="13.89" length="92.10" shape="200.00,104.80 107.90,104.80"/>
        <lane id="E2_1" index="1" speed="13.89" length="92.10" shape="200.00,101.60 107.90,101.60"/>
    </edge>
    <edge id="E3" from="J4" to="J1" priority="-1">
        <lane id="E3_0" index="0" speed="13.89" length="92.10" shape="95.20,200.00 95.20,107.90"/>
        <lane id="E3_1" index="1" speed="13.89" length="92.10" shape="98.40,200.00 98.40,107.90"/>
    </edge>

    <junction id="J0" type="dead_end" x="0.00" y="100.00" incLanes="" intLanes="" shape="0.00,100.00 0.00,93.60"/>
    <junction id="J1" type="dead_end" x="100.00" y="100.00" incLanes="E3_0 E3_1 E2_0 E2_1 E1_0 E1_1 E0_0 E0_1" intLanes="" shape="93.60,107.90 100.00,107.90 100.88,107.07 101.97,106.77 103.51,106.57 105.49,106.44 107.90,106.40 107.90,100.00 107.07,99.12 106.77,98.03 106.57,96.49 106.44,94.51 106.40,92.10 100.00,92.10 99.12,92.93 98.03,93.23 96.49,93.43 94.51,93.56 92.10,93.60 92.10,100.00 92.93,100.88 93.23,101.97 93.43,103.51 93.56,105.49"/>
    <junction id="J2" type="dead_end" x="100.00" y="0.00" incLanes="" intLanes="" shape="100.00,0.00 106.40,0.00"/>
    <junction id="J3" type="dead_end" x="200.00" y="100.00" incLanes="" intLanes="" shape="200.00,100.00 200.00,106.40"/>
    <junction id="J4" type="dead_end" x="100.00" y="200.00" incLanes="" intLanes="" shape="100.00,200.00 93.60,200.00"/>

</net>
