<?xml version="1.0" encoding="UTF-8"?>

<!-- generated on 2022-05-20 14:42:14 by Eclipse SUMO netedit Version 1.13.0
<configuration xmlns:xsi="http://www.w3.org/2001/XMLSchema-instance" xsi:noNamespaceSchemaLocation="http://sumo.dlr.de/xsd/netconvertConfiguration.xsd">

    <output>
        <output-file value="/home/nando/Dev/SMARTS/baselines/marl_benchmark/scenarios/custom/merge/merge75_lanes82/map.net.xml"/>
    </output>

    <processing>
        <offset.disable-normalization value="true"/>
    </processing>

    <junctions>
        <no-turnarounds value="true"/>
    </junctions>

    <report>
        <aggregate-warnings value="5"/>
    </report>

</configuration>
-->

<net version="1.9" junctionCornerDetail="5" limitTurnSpeed="5.50" xmlns:xsi="http://www.w3.org/2001/XMLSchema-instance" xsi:noNamespaceSchemaLocation="http://sumo.dlr.de/xsd/net_file.xsd">

    <location netOffset="0.00,0.00" convBoundary="0.00,-18.75,75.00,31.25" origBoundary="10000000000.00,10000000000.00,-10000000000.00,-10000000000.00" projParameter="!"/>

    <edge id=":J1_0" function="internal">
        <lane id=":J1_0_0" index="0" speed="11.14" length="12.85" shape="32.53,-6.72 35.82,-3.15 38.53,-0.59 40.66,0.94 42.22,1.45"/>
        <lane id=":J1_0_1" index="1" speed="12.21" length="15.52" shape="30.12,-4.61 33.92,-0.56 37.20,2.33 39.97,4.07 42.22,4.65"/>
    </edge>
    <edge id=":J1_2" function="internal">
        <lane id=":J1_2_0" index="0" speed="15.00" length="19.35" shape="23.71,-2.15 29.13,-0.62 32.86,0.51 36.64,1.21 42.22,1.45"/>
        <lane id=":J1_2_1" index="1" speed="15.00" length="19.35" shape="22.93,0.96 28.58,2.54 32.47,3.70 36.40,4.41 42.22,4.65"/>
    </edge>
    <edge id=":J1_4" function="internal">
        <lane id=":J1_4_0" index="0" speed="15.00" length="19.75" shape="22.51,5.05 28.27,3.46 32.25,2.34 36.28,1.67 42.22,1.45"/>
        <lane id=":J1_4_1" index="1" speed="15.00" length="19.75" shape="23.28,8.15 28.83,6.62 32.64,5.53 36.51,4.87 42.22,4.65"/>
    </edge>
    <edge id=":J1_6" function="internal">
        <lane id=":J1_6_0" index="0" speed="14.72" length="13.47" shape="25.28,11.68 30.18,7.21 34.63,4.01 35.85,3.42"/>
        <lane id=":J1_6_1" index="1" speed="13.80" length="14.12" shape="27.54,13.94 31.95,9.88 35.86,6.97 38.76,5.50"/>
    </edge>
    <edge id=":J1_8" function="internal">
        <lane id=":J1_8_0" index="0" speed="14.72" length="6.73" shape="35.85,3.42 38.65,2.09 42.22,1.45"/>
    </edge>
    <edge id=":J1_9" function="internal">
        <lane id=":J1_9_0" index="0" speed="13.80" length="3.58" shape="38.76,5.50 39.28,5.23 42.22,4.65"/>
    </edge>

    <edge id="E0" from="J0" to="J1" priority="-1">
        <lane id="E0_0" index="0" speed="15.00" length="24.40" shape="-1.16,10.97 22.51,5.05"/>
        <lane id="E0_1" index="1" speed="15.00" length="24.40" shape="-0.39,14.07 23.28,8.15"/>
    </edge>
    <edge id="E1" from="J2" to="J1" priority="-1">
        <lane id="E1_0" index="0" speed="15.00" length="23.24" shape="1.16,-7.78 23.71,-2.15"/>
        <lane id="E1_1" index="1" speed="15.00" length="23.24" shape="0.39,-4.68 22.93,0.96"/>
    </edge>
    <edge id="E2" from="J3" to="J1" priority="-1">
        <lane id="E2_0" index="0" speed="15.00" length="20.18" shape="19.24,-21.91 32.53,-6.72"/>
        <lane id="E2_1" index="1" speed="15.00" length="20.18" shape="16.83,-19.80 30.12,-4.61"/>
    </edge>
    <edge id="E3" from="J4" to="J1" priority="-1">
        <lane id="E3_0" index="0" speed="15.00" length="22.87" shape="9.11,27.86 25.28,11.68"/>
        <lane id="E3_1" index="1" speed="15.00" length="22.87" shape="11.37,30.12 27.54,13.94"/>
    </edge>
    <edge id="E4" from="J1" to="J5" priority="-1">
        <lane id="E4_0" index="0" speed="15.00" length="32.78" shape="42.22,1.45 75.00,1.45"/>
        <lane id="E4_1" index="1" speed="15.00" length="32.78" shape="42.22,4.65 75.00,4.65"/>
    </edge>

    <junction id="J0" type="dead_end" x="0.00" y="15.62" incLanes="" intLanes="" shape="0.00,15.62 -1.55,9.42"/>
    <junction id="J1" type="priority" x="37.50" y="6.25" incLanes="E2_0 E2_1 E1_0 E1_1 E0_0 E0_1 E3_0 E3_1" intLanes=":J1_0_0 :J1_0_1 :J1_2_0 :J1_2_1 :J1_4_0 :J1_4_1 :J1_8_0 :J1_9_0" shape="42.22,6.25 42.22,-0.15 40.47,-1.00 39.19,-2.06 37.64,-3.54 35.82,-5.44 33.73,-7.77 28.92,-3.56 28.91,-2.97 28.31,-2.91 27.31,-3.01 25.90,-3.28 24.10,-3.70 22.55,2.51 22.12,3.50 23.67,9.71 24.15,10.55 28.67,15.08 31.50,12.38 34.10,10.17 36.47,8.46 38.62,7.23 40.53,6.50">
        <request index="0" response="00000000" foes="11111100" cont="0"/>
        <request index="1" response="00000000" foes="11111100" cont="0"/>
        <request index="2" response="11000011" foes="11110011" cont="0"/>
        <request index="3" response="11000011" foes="11110011" cont="0"/>
        <request index="4" response="11001111" foes="11001111" cont="0"/>
        <request index="5" response="11001111" foes="11001111" cont="0"/>
        <request index="6" response="00000011" foes="00111111" cont="1"/>
        <request index="7" response="00000011" foes="00111111" cont="1"/>
    </junction>
    <junction id="J2" type="dead_end" x="0.00" y="-3.12" incLanes="" intLanes="" shape="0.00,-3.12 1.55,-9.33"/>
    <junction id="J3" type="dead_end" x="15.62" y="-18.75" incLanes="" intLanes="" shape="15.62,-18.75 20.44,-22.96"/>
    <junction id="J4" type="dead_end" x="12.50" y="31.25" incLanes="" intLanes="" shape="12.50,31.25 7.97,26.72"/>
    <junction id="J5" type="dead_end" x="75.00" y="6.25" incLanes="E4_0 E4_1" intLanes="" shape="75.00,-0.15 75.00,6.25"/>

    <junction id=":J1_8_0" type="internal" x="35.85" y="3.42" incLanes=":J1_6_0 E2_0 E2_1" intLanes=":J1_0_0 :J1_0_1 :J1_2_0 :J1_2_1 :J1_4_0 :J1_4_1"/>
    <junction id=":J1_9_0" type="internal" x="38.76" y="5.50" incLanes=":J1_6_1 E2_0 E2_1" intLanes=":J1_0_0 :J1_0_1 :J1_2_0 :J1_2_1 :J1_4_0 :J1_4_1"/>

    <connection from="E0" to="E4" fromLane="0" toLane="0" via=":J1_4_0" dir="s" state="m"/>
    <connection from="E0" to="E4" fromLane="1" toLane="1" via=":J1_4_1" dir="s" state="m"/>
    <connection from="E1" to="E4" fromLane="0" toLane="0" via=":J1_2_0" dir="s" state="m"/>
    <connection from="E1" to="E4" fromLane="1" toLane="1" via=":J1_2_1" dir="s" state="m"/>
    <connection from="E2" to="E4" fromLane="0" toLane="0" via=":J1_0_0" dir="r" state="M"/>
    <connection from="E2" to="E4" fromLane="1" toLane="1" via=":J1_0_1" dir="r" state="M"/>
    <connection from="E3" to="E4" fromLane="0" toLane="0" via=":J1_6_0" dir="l" state="m"/>
    <connection from="E3" to="E4" fromLane="1" toLane="1" via=":J1_6_1" dir="l" state="m"/>

    <connection from=":J1_0" to="E4" fromLane="0" toLane="0" dir="r" state="M"/>
    <connection from=":J1_0" to="E4" fromLane="1" toLane="1" dir="r" state="M"/>
    <connection from=":J1_2" to="E4" fromLane="0" toLane="0" dir="s" state="M"/>
    <connection from=":J1_2" to="E4" fromLane="1" toLane="1" dir="s" state="M"/>
    <connection from=":J1_4" to="E4" fromLane="0" toLane="0" dir="s" state="M"/>
    <connection from=":J1_4" to="E4" fromLane="1" toLane="1" dir="s" state="M"/>
    <connection from=":J1_6" to="E4" fromLane="0" toLane="0" via=":J1_8_0" dir="l" state="m"/>
    <connection from=":J1_8" to="E4" fromLane="0" toLane="0" dir="l" state="M"/>
    <connection from=":J1_6" to="E4" fromLane="1" toLane="1" via=":J1_9_0" dir="l" state="m"/>
    <connection from=":J1_9" to="E4" fromLane="0" toLane="1" dir="l" state="M"/>

</net>
