<?xml version="1.0" encoding="UTF-8"?>

<!-- generated on 2022-05-20 14:49:52 by Eclipse SUMO netedit Version 1.13.0
<configuration xmlns:xsi="http://www.w3.org/2001/XMLSchema-instance" xsi:noNamespaceSchemaLocation="http://sumo.dlr.de/xsd/netconvertConfiguration.xsd">

    <output>
        <output-file value="/home/nando/Dev/SMARTS/baselines/marl_benchmark/scenarios/custom/merge/merge75_lanes63/map.net.xml"/>
    </output>

    <processing>
        <offset.disable-normalization value="true"/>
    </processing>

    <junctions>
        <no-turnarounds value="true"/>
    </junctions>

    <report>
        <aggregate-warnings value="5"/>
    </report>

</configuration>
-->

<net version="1.9" junctionCornerDetail="5" limitTurnSpeed="5.50" xmlns:xsi="http://www.w3.org/2001/XMLSchema-instance" xsi:noNamespaceSchemaLocation="http://sumo.dlr.de/xsd/net_file.xsd">

    <location netOffset="0.00,0.00" convBoundary="-6.25,-18.75,78.12,21.88" origBoundary="10000000000.00,10000000000.00,-10000000000.00,-10000000000.00" projParameter="!"/>

    <edge id=":J1_0" function="internal">
        <lane id=":J1_0_0" index="0" speed="15.00" length="15.95" shape="30.98,-10.20 34.78,-8.09 37.37,-6.41 40.08,-5.28 44.25,-4.88"/>
        <lane id=":J1_0_1" index="1" speed="15.00" length="15.95" shape="29.63,-7.30 33.81,-5.03 36.67,-3.25 39.66,-2.09 44.25,-1.68"/>
        <lane id=":J1_0_2" index="2" speed="15.00" length="15.95" shape="28.28,-4.40 32.83,-1.96 35.97,-0.09 39.25,1.11 44.25,1.52"/>
    </edge>
    <edge id=":J1_3" function="internal">
        <lane id=":J1_3_0" index="0" speed="15.00" length="15.62" shape="28.21,-0.26 32.78,-2.37 35.98,-3.80 39.30,-4.62 44.25,-4.88"/>
        <lane id=":J1_3_1" index="1" speed="15.00" length="15.62" shape="29.47,2.68 33.69,0.72 36.63,-0.63 39.69,-1.42 44.25,-1.68"/>
        <lane id=":J1_3_2" index="2" speed="15.00" length="15.62" shape="30.73,5.62 34.59,3.81 37.28,2.53 40.07,1.77 44.25,1.52"/>
    </edge>

    <edge id="E0" from="J0" to="J1" priority="-1">
        <lane id="E0_0" index="0" speed="15.00" length="37.52" shape="-6.28,14.52 28.21,-0.26"/>
        <lane id="E0_1" index="1" speed="15.00" length="37.52" shape="-5.02,17.46 29.47,2.68"/>
        <lane id="E0_2" index="2" speed="15.00" length="37.52" shape="-3.76,20.40 30.73,5.62"/>
    </edge>
    <edge id="E1" from="J2" to="J1" priority="-1">
        <lane id="E1_0" index="0" speed="15.00" length="37.35" shape="-2.87,-26.00 30.98,-10.20"/>
        <lane id="E1_1" index="1" speed="15.00" length="37.35" shape="-4.22,-23.10 29.63,-7.30"/>
        <lane id="E1_2" index="2" speed="15.00" length="37.35" shape="-5.57,-20.20 28.28,-4.40"/>
    </edge>
    <edge id="E3" from="J1" to="J4" priority="-1">
        <lane id="E3_0" index="0" speed="15.00" length="33.87" shape="44.25,-4.88 78.12,-4.88"/>
        <lane id="E3_1" index="1" speed="15.00" length="33.87" shape="44.25,-1.68 78.12,-1.68"/>
        <lane id="E3_2" index="2" speed="15.00" length="33.87" shape="44.25,1.52 78.12,1.52"/>
    </edge>

    <junction id="J0" type="dead_end" x="-3.12" y="21.88" incLanes="" intLanes="" shape="-3.12,21.87 -6.91,13.05"/>
    <junction id="J1" type="priority" x="40.62" y="3.12" incLanes="E1_0 E1_1 E1_2 E0_0 E0_1 E0_2" intLanes=":J1_0_0 :J1_0_1 :J1_0_2 :J1_3_0 :J1_3_1 :J1_3_2" shape="44.25,3.12 44.25,-6.48 41.39,-6.66 39.33,-7.18 37.72,-7.98 36.15,-9.03 34.26,-10.27 31.66,-11.65 27.60,-2.95 28.20,-2.54 28.27,-2.33 28.19,-2.13 27.96,-1.93 27.58,-1.73 31.36,7.10 34.00,5.88 35.96,4.88 37.60,4.11 39.29,3.56 41.39,3.23">
        <request index="0" response="000000" foes="111000" cont="0"/>
        <request index="1" response="000000" foes="111000" cont="0"/>
        <request index="2" response="000000" foes="111000" cont="0"/>
        <request index="3" response="000111" foes="000111" cont="0"/>
        <request index="4" response="000111" foes="000111" cont="0"/>
        <request index="5" response="000111" foes="000111" cont="0"/>
    </junction>
    <junction id="J2" type="dead_end" x="-6.25" y="-18.75" incLanes="" intLanes="" shape="-6.25,-18.75 -2.19,-27.45"/>
    <junction id="J4" type="dead_end" x="78.12" y="3.12" incLanes="E3_0 E3_1 E3_2" intLanes="" shape="78.12,-6.48 78.12,3.12"/>

    <connection from="E0" to="E3" fromLane="0" toLane="0" via=":J1_3_0" dir="s" state="m"/>
    <connection from="E0" to="E3" fromLane="1" toLane="1" via=":J1_3_1" dir="s" state="m"/>
    <connection from="E0" to="E3" fromLane="2" toLane="2" via=":J1_3_2" dir="s" state="m"/>
    <connection from="E1" to="E3" fromLane="0" toLane="0" via=":J1_0_0" dir="s" state="M"/>
    <connection from="E1" to="E3" fromLane="1" toLane="1" via=":J1_0_1" dir="s" state="M"/>
    <connection from="E1" to="E3" fromLane="2" toLane="2" via=":J1_0_2" dir="s" state="M"/>

    <connection from=":J1_0" to="E3" fromLane="0" toLane="0" dir="s" state="M"/>
    <connection from=":J1_0" to="E3" fromLane="1" toLane="1" dir="s" state="M"/>
    <connection from=":J1_0" to="E3" fromLane="2" toLane="2" dir="s" state="M"/>
    <connection from=":J1_3" to="E3" fromLane="0" toLane="0" dir="s" state="M"/>
    <connection from=":J1_3" to="E3" fromLane="1" toLane="1" dir="s" state="M"/>
    <connection from=":J1_3" to="E3" fromLane="2" toLane="2" dir="s" state="M"/>

</net>
