<?xml version="1.0" encoding="UTF-8"?>

<!-- generated on 2022-04-29 17:09:58 by Eclipse SUMO netedit Version 1.12.0
<configuration xmlns:xsi="http://www.w3.org/2001/XMLSchema-instance" xsi:noNamespaceSchemaLocation="http://sumo.dlr.de/xsd/netconvertConfiguration.xsd">

    <output>
        <output-file value="/home/nando/Dev/SMARTS/baselines/marl_benchmark/scenarios/custom/merge/merge75_lanes321/map.net.xml"/>
    </output>

    <processing>
        <offset.disable-normalization value="true"/>
    </processing>

    <junctions>
        <no-turnarounds value="true"/>
    </junctions>

    <report>
        <aggregate-warnings value="5"/>
    </report>

</configuration>
-->

<net version="1.9" junctionCornerDetail="5" limitTurnSpeed="5.50" xmlns:xsi="http://www.w3.org/2001/XMLSchema-instance" xsi:noNamespaceSchemaLocation="http://sumo.dlr.de/xsd/net_file.xsd">

    <location netOffset="0.00,0.00" convBoundary="0.00,0.00,75.00,0.00" origBoundary="10000000000.00,10000000000.00,-10000000000.00,-10000000000.00" projParameter="!"/>

    <edge id=":J1_0" function="internal">
        <lane id=":J1_0_0" index="0" speed="16.00" length="8.00" shape="21.00,-4.80 29.00,-4.80"/>
        <lane id=":J1_0_1" index="1" speed="16.00" length="8.00" shape="21.00,-1.60 29.00,-1.60"/>
    </edge>
    <edge id=":J2_0" function="internal">
        <lane id=":J2_0_0" index="0" speed="16.00" length="8.00" shape="46.00,-1.60 54.00,-1.60"/>
    </edge>

    <edge id="E0" from="J0" to="J1" priority="-1">
        <lane id="E0_0" index="0" speed="16.00" length="21.00" shape="0.00,-8.00 21.00,-8.00"/>
        <lane id="E0_1" index="1" speed="16.00" length="21.00" shape="0.00,-4.80 21.00,-4.80"/>
        <lane id="E0_2" index="2" speed="16.00" length="21.00" shape="0.00,-1.60 21.00,-1.60"/>
    </edge>
    <edge id="E1" from="J1" to="J2" priority="-1">
        <lane id="E1_0" index="0" speed="16.00" length="17.00" shape="29.00,-4.80 46.00,-4.80"/>
        <lane id="E1_1" index="1" speed="16.00" length="17.00" shape="29.00,-1.60 46.00,-1.60"/>
    </edge>
    <edge id="E2" from="J2" to="J3" priority="-1">
        <lane id="E2_0" index="0" speed="16.00" length="21.00" shape="54.00,-1.60 75.00,-1.60"/>
    </edge>

    <junction id="J0" type="dead_end" x="0.00" y="0.00" incLanes="" intLanes="" shape="0.00,0.00 0.00,-9.60"/>
    <junction id="J1" type="priority" x="25.00" y="0.00" incLanes="E0_0 E0_1 E0_2" intLanes=":J1_0_0 :J1_0_1" shape="29.00,0.00 29.00,-6.40 25.97,-7.23 24.03,-8.77 22.79,-9.36 21.00,-9.60 21.00,0.00">
        <request index="0" response="00" foes="00" cont="0"/>
        <request index="1" response="00" foes="00" cont="0"/>
    </junction>
    <junction id="J2" type="priority" x="50.00" y="0.00" incLanes="E1_0 E1_1" intLanes=":J2_0_0" shape="54.00,0.00 54.00,-3.20 50.97,-4.03 49.03,-5.57 47.79,-6.16 46.00,-6.40 46.00,0.00">
        <request index="0" response="0" foes="0" cont="0"/>
    </junction>
    <junction id="J3" type="dead_end" x="75.00" y="0.00" incLanes="E2_0" intLanes="" shape="75.00,-3.20 75.00,0.00"/>

    <connection from="E0" to="E1" fromLane="1" toLane="0" via=":J1_0_0" dir="s" state="M"/>
    <connection from="E0" to="E1" fromLane="2" toLane="1" via=":J1_0_1" dir="s" state="M"/>
    <connection from="E1" to="E2" fromLane="1" toLane="0" via=":J2_0_0" dir="s" state="M"/>

    <connection from=":J1_0" to="E1" fromLane="0" toLane="0" dir="s" state="M"/>
    <connection from=":J1_0" to="E1" fromLane="1" toLane="1" dir="s" state="M"/>
    <connection from=":J2_0" to="E2" fromLane="0" toLane="0" dir="s" state="M"/>

</net>
