<?xml version="1.0" encoding="UTF-8"?>

<!-- generated on 2022-01-17 12:47:01 by Eclipse SUMO netconvert Version 1.11.0
<configuration xmlns:xsi="http://www.w3.org/2001/XMLSchema-instance" xsi:noNamespaceSchemaLocation="http://sumo.dlr.de/xsd/netconvertConfiguration.xsd">

    <input>
        <node-files value="sumotest.nod.xml"/>
        <edge-files value="sumotest.edg.xml"/>
    </input>

    <output>
        <output-file value="sumotest.net.xml"/>
    </output>

    <report>
        <aggregate-warnings value="5"/>
    </report>

</configuration>
-->

<net version="1.9" junctionCornerDetail="5" limitTurnSpeed="5.50" xmlns:xsi="http://www.w3.org/2001/XMLSchema-instance" xsi:noNamespaceSchemaLocation="http://sumo.dlr.de/xsd/net_file.xsd">

    <location netOffset="0.00,0.00" convBoundary="0.00,0.00,1000.00,0.00" origBoundary="0.00,0.00,1000.00,0.00" projParameter="!"/>

    <edge id="e1" from="1" to="2" priority="2">
        <lane id="e1_0" index="0" disallow="pedestrian tram rail_urban rail rail_electric rail_fast ship" speed="14.00" length="1000.00" shape="0.00,-4.80 1000.00,-4.80"/>
        <lane id="e1_1" index="1" disallow="pedestrian tram rail_urban rail rail_electric rail_fast ship" speed="14.00" length="1000.00" shape="0.00,-1.60 1000.00,-1.60"/>
    </edge>

    <junction id="1" type="dead_end" x="0.00" y="0.00" incLanes="" intLanes="" shape="0.00,0.00 0.00,-6.40"/>
    <junction id="2" type="dead_end" x="1000.00" y="0.00" incLanes="e1_0 e1_1" intLanes="" shape="1000.00,-6.40 1000.00,0.00"/>

</net>
