<?xml version="1.0" encoding="UTF-8"?>

<!-- generated on 2022-02-19 19:20:17 by Eclipse SUMO netedit Version 1.12.0
<configuration xmlns:xsi="http://www.w3.org/2001/XMLSchema-instance" xsi:noNamespaceSchemaLocation="http://sumo.dlr.de/xsd/netconvertConfiguration.xsd">

    <output>
        <output-file value="C:\Dev\straight\map.net.xml"/>
    </output>

    <processing>
        <offset.disable-normalization value="true"/>
    </processing>

    <junctions>
        <no-turnarounds value="true"/>
    </junctions>

    <report>
        <aggregate-warnings value="5"/>
    </report>

</configuration>
-->

<net version="1.9" junctionCornerDetail="5" limitTurnSpeed="5.50" xmlns:xsi="http://www.w3.org/2001/XMLSchema-instance" xsi:noNamespaceSchemaLocation="http://sumo.dlr.de/xsd/net_file.xsd">

    <location netOffset="0.00,0.00" convBoundary="0.07,0.09,100.02,0.09" origBoundary="10000000000.00,10000000000.00,-10000000000.00,-10000000000.00" projParameter="!"/>

    <edge id="E0" from="J0" to="J1" priority="-1">
        <lane id="E0_0" index="0" speed="13.89" length="99.95" shape="0.07,-1.51 100.02,-1.51"/>
    </edge>

    <junction id="J0" type="dead_end" x="0.07" y="0.09" incLanes="" intLanes="" shape="0.07,0.09 0.07,-3.11"/>
    <junction id="J1" type="dead_end" x="100.02" y="0.09" incLanes="E0_0" intLanes="" shape="100.02,-3.11 100.02,0.09"/>

</net>
