<?xml version="1.0" encoding="UTF-8"?>

<!-- generated on 2022-05-03 13:52:37 by Eclipse SUMO netedit Version 1.12.0
<configuration xmlns:xsi="http://www.w3.org/2001/XMLSchema-instance" xsi:noNamespaceSchemaLocation="http://sumo.dlr.de/xsd/netconvertConfiguration.xsd">

    <output>
        <output-file value="/home/nando/Dev/SMARTS/baselines/marl_benchmark/scenarios/custom/merge/merge65_lanes22/map2.net.xml"/>
    </output>

    <processing>
        <offset.disable-normalization value="true"/>
    </processing>

    <junctions>
        <no-turnarounds value="true"/>
    </junctions>

    <report>
        <aggregate-warnings value="5"/>
    </report>

</configuration>
-->

<net version="1.9" junctionCornerDetail="5" limitTurnSpeed="5.50" xmlns:xsi="http://www.w3.org/2001/XMLSchema-instance" xsi:noNamespaceSchemaLocation="http://sumo.dlr.de/xsd/net_file.xsd">

    <location netOffset="0.00,0.00" convBoundary="0.00,0.00,65.62,12.50" origBoundary="10000000000.00,10000000000.00,-10000000000.00,-10000000000.00" projParameter="!"/>

    <edge id=":J1_0" function="internal">
        <lane id=":J1_0_0" index="0" speed="16.00" length="0.89" shape="17.85,7.70 17.99,7.70 18.08,7.69 18.17,7.67 18.29,7.64"/>
        <lane id=":J1_0_1" index="1" speed="16.00" length="0.89" shape="17.85,10.90 18.25,10.90 18.52,10.88 18.79,10.82 19.17,10.72"/>
    </edge>
    <edge id=":J5_0" function="internal">
        <lane id=":J5_0_0" index="0" speed="16.00" length="0.89" shape="18.75,-4.80 19.15,-4.80 19.42,-4.78 19.69,-4.72 20.07,-4.62"/>
        <lane id=":J5_0_1" index="1" speed="16.00" length="0.89" shape="18.75,-1.60 18.88,-1.60 18.97,-1.59 19.06,-1.57 19.19,-1.54"/>
    </edge>
    <edge id=":J6_0" function="internal">
        <lane id=":J6_0_0" index="0" speed="16.00" length="14.30" shape="28.85,-2.11 32.75,-0.75 35.39,0.38 38.08,1.16 42.12,1.45"/>
        <lane id=":J6_0_1" index="1" speed="16.00" length="14.30" shape="27.97,0.97 32.12,2.39 34.94,3.56 37.82,4.36 42.12,4.65"/>
    </edge>
    <edge id=":J6_2" function="internal">
        <lane id=":J6_2_0" index="0" speed="16.00" length="14.22" shape="27.97,4.87 32.11,3.49 34.94,2.41 37.83,1.70 42.12,1.45"/>
        <lane id=":J6_2_1" index="1" speed="16.00" length="14.22" shape="28.85,7.95 32.74,6.64 35.39,5.60 38.09,4.90 42.12,4.65"/>
    </edge>

    <edge id="E0" from="J0" to="J1" priority="-1">
        <lane id="E0_0" index="0" speed="16.00" length="17.85" shape="0.00,7.70 17.85,7.70"/>
        <lane id="E0_1" index="1" speed="16.00" length="17.85" shape="0.00,10.90 17.85,10.90"/>
    </edge>
    <edge id="E3" from="J4" to="J5" priority="-1">
        <lane id="E3_0" index="0" speed="16.00" length="18.75" shape="0.00,-4.80 18.75,-4.80"/>
        <lane id="E3_1" index="1" speed="16.00" length="18.75" shape="0.00,-1.60 18.75,-1.60"/>
    </edge>
    <edge id="E4" from="J1" to="J6" priority="-1">
        <lane id="E4_0" index="0" speed="16.00" length="10.07" shape="18.29,7.64 27.97,4.87"/>
        <lane id="E4_1" index="1" speed="16.00" length="10.07" shape="19.17,10.72 28.85,7.95"/>
    </edge>
    <edge id="E5" from="J5" to="J6" priority="-1">
        <lane id="E5_0" index="0" speed="16.00" length="9.14" shape="20.07,-4.62 28.85,-2.11"/>
        <lane id="E5_1" index="1" speed="16.00" length="9.14" shape="19.19,-1.54 27.97,0.97"/>
    </edge>
    <edge id="E6" from="J6" to="J7" priority="-1">
        <lane id="E6_0" index="0" speed="16.00" length="23.50" shape="42.12,1.45 65.62,1.45"/>
        <lane id="E6_1" index="1" speed="16.00" length="23.50" shape="42.12,4.65 65.62,4.65"/>
    </edge>

    <junction id="J0" type="dead_end" x="0.00" y="12.50" incLanes="" intLanes="" shape="0.00,12.50 0.00,6.10"/>
    <junction id="J1" type="priority" x="18.75" y="12.50" incLanes="E0_0 E0_1" intLanes=":J1_0_0 :J1_0_1" shape="19.61,12.25 17.85,6.10 17.85,12.50 18.51,12.49 18.75,12.47 18.97,12.43 19.25,12.36">
        <request index="0" response="00" foes="00" cont="0"/>
        <request index="1" response="00" foes="00" cont="0"/>
    </junction>
    <junction id="J4" type="dead_end" x="0.00" y="0.00" incLanes="" intLanes="" shape="0.00,0.00 0.00,-6.40"/>
    <junction id="J5" type="priority" x="18.75" y="0.00" incLanes="E3_0 E3_1" intLanes=":J5_0_0 :J5_0_1" shape="18.75,0.00 20.51,-6.15 19.87,-6.33 19.64,-6.37 19.41,-6.39 19.13,-6.40 18.75,-6.40">
        <request index="0" response="00" foes="00" cont="0"/>
        <request index="1" response="00" foes="00" cont="0"/>
    </junction>
    <junction id="J6" type="priority" x="40.62" y="6.25" incLanes="E5_0 E5_1 E4_0 E4_1" intLanes=":J6_0_0 :J6_0_1 :J6_2_0 :J6_2_1" shape="42.12,6.25 42.12,-0.15 39.31,-0.28 37.26,-0.65 35.61,-1.21 33.98,-1.93 32.00,-2.75 29.29,-3.64 27.53,2.51 27.53,3.33 29.29,9.49 31.99,8.62 33.98,7.84 35.61,7.19 37.27,6.69 39.32,6.36">
        <request index="0" response="0000" foes="1100" cont="0"/>
        <request index="1" response="0000" foes="1100" cont="0"/>
        <request index="2" response="0011" foes="0011" cont="0"/>
        <request index="3" response="0011" foes="0011" cont="0"/>
    </junction>
    <junction id="J7" type="dead_end" x="65.62" y="6.25" incLanes="E6_0 E6_1" intLanes="" shape="65.62,-0.15 65.62,6.25"/>

    <connection from="E0" to="E4" fromLane="0" toLane="0" via=":J1_0_0" dir="s" state="M"/>
    <connection from="E0" to="E4" fromLane="1" toLane="1" via=":J1_0_1" dir="s" state="M"/>
    <connection from="E3" to="E5" fromLane="0" toLane="0" via=":J5_0_0" dir="s" state="M"/>
    <connection from="E3" to="E5" fromLane="1" toLane="1" via=":J5_0_1" dir="s" state="M"/>
    <connection from="E4" to="E6" fromLane="0" toLane="0" via=":J6_2_0" dir="s" state="m"/>
    <connection from="E4" to="E6" fromLane="1" toLane="1" via=":J6_2_1" dir="s" state="m"/>
    <connection from="E5" to="E6" fromLane="0" toLane="0" via=":J6_0_0" dir="s" state="M"/>
    <connection from="E5" to="E6" fromLane="1" toLane="1" via=":J6_0_1" dir="s" state="M"/>

    <connection from=":J1_0" to="E4" fromLane="0" toLane="0" dir="s" state="M"/>
    <connection from=":J1_0" to="E4" fromLane="1" toLane="1" dir="s" state="M"/>
    <connection from=":J5_0" to="E5" fromLane="0" toLane="0" dir="s" state="M"/>
    <connection from=":J5_0" to="E5" fromLane="1" toLane="1" dir="s" state="M"/>
    <connection from=":J6_0" to="E6" fromLane="0" toLane="0" dir="s" state="M"/>
    <connection from=":J6_0" to="E6" fromLane="1" toLane="1" dir="s" state="M"/>
    <connection from=":J6_2" to="E6" fromLane="0" toLane="0" dir="s" state="M"/>
    <connection from=":J6_2" to="E6" fromLane="1" toLane="1" dir="s" state="M"/>

</net>
