<?xml version="1.0" encoding="UTF-8"?>

<!-- generated on 2022-03-14 15:31:17 by Eclipse SUMO netedit Version 1.12.0
<configuration xmlns:xsi="http://www.w3.org/2001/XMLSchema-instance" xsi:noNamespaceSchemaLocation="http://sumo.dlr.de/xsd/netconvertConfiguration.xsd">

    <input>
        <sumo-net-file value="/home/nando/Dev/SMARTS/baselines/marl_benchmark/scenarios/custom/merge150_lanes2/map.net.xml"/>
    </input>

    <output>
        <output-file value="/home/nando/Dev/SMARTS/baselines/marl_benchmark/scenarios/custom/merge150_lanes2/map.net.xml"/>
    </output>

    <processing>
        <geometry.min-radius.fix.railways value="false"/>
        <geometry.max-grade.fix value="false"/>
        <offset.disable-normalization value="true"/>
        <lefthand value="false"/>
    </processing>

    <junctions>
        <no-turnarounds value="true"/>
        <junctions.corner-detail value="5"/>
        <junctions.limit-turn-speed value="5.5"/>
        <rectangular-lane-cut value="false"/>
    </junctions>

    <pedestrian>
        <walkingareas value="false"/>
    </pedestrian>

    <report>
        <aggregate-warnings value="5"/>
    </report>

</configuration>
-->

<net version="1.9" junctionCornerDetail="5" limitTurnSpeed="5.50" xmlns:xsi="http://www.w3.org/2001/XMLSchema-instance" xsi:noNamespaceSchemaLocation="http://sumo.dlr.de/xsd/net_file.xsd">

    <location netOffset="0.00,0.00" convBoundary="-0.04,-10.03,110.19,10.11" origBoundary="-10000000000.00,-10000000000.00,10000000000.00,10000000000.00" projParameter="!"/>

    <edge id=":J1_0" function="internal">
        <lane id=":J1_0_0" index="0" speed="16.00" length="19.59" shape="33.28,-8.12 38.85,-6.76 42.64,-5.64 46.47,-4.88 52.15,-4.60"/>
        <lane id=":J1_0_1" index="1" speed="16.00" length="19.59" shape="32.64,-4.98 38.39,-3.58 42.32,-2.44 46.28,-1.68 52.15,-1.40"/>
    </edge>
    <edge id=":J1_2" function="internal">
        <lane id=":J1_2_0" index="0" speed="16.00" length="19.57" shape="32.63,-1.25 38.38,-2.59 42.32,-3.65 46.29,-4.35 52.15,-4.60"/>
        <lane id=":J1_2_1" index="1" speed="16.00" length="19.57" shape="33.25,1.89 38.82,0.59 42.63,-0.45 46.47,-1.15 52.15,-1.40"/>
    </edge>

    <edge id="E0" from="J0" to="J1" priority="-1">
        <lane id="E0_0" index="0" speed="16.00" length="33.03" shape="0.92,-14.73 33.28,-8.12"/>
        <lane id="E0_1" index="1" speed="16.00" length="33.03" shape="0.28,-11.60 32.64,-4.98"/>
    </edge>
    <edge id="E1" from="J2" to="J1" priority="-1">
        <lane id="E1_0" index="0" speed="16.00" length="34.25" shape="-0.97,5.40 32.63,-1.25"/>
        <lane id="E1_1" index="1" speed="16.00" length="34.25" shape="-0.35,8.54 33.25,1.89"/>
    </edge>
    <edge id="E2" from="J1" to="J3" priority="-1">
        <lane id="E2_0" index="0" speed="16.00" length="58.04" shape="52.15,-4.60 110.19,-4.63"/>
        <lane id="E2_1" index="1" speed="16.00" length="58.04" shape="52.15,-1.40 110.19,-1.43"/>
    </edge>

    <junction id="J0" type="dead_end" x="-0.04" y="-10.03" incLanes="" intLanes="" shape="-0.04,-10.03 1.24,-16.30"/>
    <junction id="J1" type="priority" x="50.00" y="0.20" incLanes="E0_0 E0_1 E1_0 E1_1" intLanes=":J1_0_0 :J1_0_1 :J1_2_0 :J1_2_1" shape="52.15,0.20 52.15,-6.20 48.14,-6.33 45.20,-6.68 42.80,-7.23 40.42,-7.94 37.53,-8.77 33.60,-9.68 32.32,-3.41 32.32,-2.82 33.56,3.46 37.50,2.58 40.40,1.80 42.79,1.14 45.19,0.64 48.14,0.31">
        <request index="0" response="0000" foes="1100" cont="0"/>
        <request index="1" response="0000" foes="1100" cont="0"/>
        <request index="2" response="0011" foes="0011" cont="0"/>
        <request index="3" response="0011" foes="0011" cont="0"/>
    </junction>
    <junction id="J2" type="dead_end" x="-0.04" y="10.11" incLanes="" intLanes="" shape="-0.04,10.11 -1.28,3.83"/>
    <junction id="J3" type="dead_end" x="110.19" y="0.17" incLanes="E2_0 E2_1" intLanes="" shape="110.19,-6.23 110.19,0.17"/>

    <connection from="E0" to="E2" fromLane="0" toLane="0" via=":J1_0_0" dir="s" state="M"/>
    <connection from="E0" to="E2" fromLane="1" toLane="1" via=":J1_0_1" dir="s" state="M"/>
    <connection from="E1" to="E2" fromLane="0" toLane="0" via=":J1_2_0" dir="s" state="m"/>
    <connection from="E1" to="E2" fromLane="1" toLane="1" via=":J1_2_1" dir="s" state="m"/>

    <connection from=":J1_0" to="E2" fromLane="0" toLane="0" dir="s" state="M"/>
    <connection from=":J1_0" to="E2" fromLane="1" toLane="1" dir="s" state="M"/>
    <connection from=":J1_2" to="E2" fromLane="0" toLane="0" dir="s" state="M"/>
    <connection from=":J1_2" to="E2" fromLane="1" toLane="1" dir="s" state="M"/>

</net>
