<?xml version="1.0" encoding="UTF-8"?>

<!-- generated on 2022-05-02 19:13:20 by Eclipse SUMO netedit Version 1.12.0
<configuration xmlns:xsi="http://www.w3.org/2001/XMLSchema-instance" xsi:noNamespaceSchemaLocation="http://sumo.dlr.de/xsd/netconvertConfiguration.xsd">

    <input>
        <sumo-net-file value="/home/nando/Dev/SMARTS/baselines/marl_benchmark/scenarios/custom/merge/merge90_lanes31/map.net.xml"/>
    </input>

    <output>
        <output-file value="/home/nando/Dev/SMARTS/baselines/marl_benchmark/scenarios/custom/merge/merge90_lanes31/map.net.xml"/>
    </output>

    <processing>
        <geometry.min-radius.fix.railways value="false"/>
        <geometry.max-grade.fix value="false"/>
        <offset.disable-normalization value="true"/>
        <lefthand value="false"/>
    </processing>

    <junctions>
        <no-turnarounds value="true"/>
        <junctions.corner-detail value="5"/>
        <junctions.limit-turn-speed value="5.5"/>
        <rectangular-lane-cut value="false"/>
    </junctions>

    <pedestrian>
        <walkingareas value="false"/>
    </pedestrian>

    <report>
        <aggregate-warnings value="5"/>
    </report>

</configuration>
-->

<net version="1.9" junctionCornerDetail="5" limitTurnSpeed="5.50" xmlns:xsi="http://www.w3.org/2001/XMLSchema-instance" xsi:noNamespaceSchemaLocation="http://sumo.dlr.de/xsd/net_file.xsd">

    <location netOffset="0.00,0.00" convBoundary="0.00,0.00,90.62,0.00" origBoundary="-10000000000.00,-10000000000.00,10000000000.00,10000000000.00" projParameter="!"/>

    <edge id=":J2_0" function="internal">
        <lane id=":J2_0_0" index="0" speed="16.00" length="8.00" shape="71.00,-1.60 79.00,-1.60"/>
    </edge>

    <edge id="E0" from="J1" to="J2" priority="-1">
        <lane id="E0_0" index="0" speed="16.00" length="71.00" shape="0.00,-8.00 71.00,-8.00"/>
        <lane id="E0_1" index="1" speed="16.00" length="71.00" shape="0.00,-4.80 71.00,-4.80"/>
        <lane id="E0_2" index="2" speed="16.00" length="71.00" shape="0.00,-1.60 71.00,-1.60"/>
    </edge>
    <edge id="E1" from="J2" to="J0" priority="-1">
        <lane id="E1_0" index="0" speed="16.00" length="11.62" shape="79.00,-1.60 90.62,-1.60"/>
    </edge>

    <junction id="J0" type="dead_end" x="90.62" y="0.00" incLanes="E1_0" intLanes="" shape="90.62,-3.20 90.62,0.00"/>
    <junction id="J1" type="dead_end" x="0.00" y="0.00" incLanes="" intLanes="" shape="0.00,0.00 0.00,-9.60"/>
    <junction id="J2" type="priority" x="75.00" y="0.00" incLanes="E0_0 E0_1 E0_2" intLanes=":J2_0_0" shape="79.00,0.00 79.00,-3.20 76.98,-3.67 75.79,-4.86 74.21,-7.94 73.02,-9.13 71.00,-9.60 71.00,0.00">
        <request index="0" response="0" foes="0" cont="0"/>
    </junction>

    <connection from="E0" to="E1" fromLane="2" toLane="0" via=":J2_0_0" dir="s" state="M"/>

    <connection from=":J2_0" to="E1" fromLane="0" toLane="0" dir="s" state="M"/>

</net>
