<?xml version="1.0" encoding="UTF-8"?>

<!-- generated on 2022-05-02 19:15:32 by Eclipse SUMO netedit Version 1.12.0
<configuration xmlns:xsi="http://www.w3.org/2001/XMLSchema-instance" xsi:noNamespaceSchemaLocation="http://sumo.dlr.de/xsd/netconvertConfiguration.xsd">

    <output>
        <output-file value="/home/nando/Dev/SMARTS/baselines/marl_benchmark/scenarios/custom/merge/merge90_lanes31/t.net.xml"/>
    </output>

    <processing>
        <offset.disable-normalization value="true"/>
    </processing>

    <junctions>
        <no-turnarounds value="true"/>
    </junctions>

    <report>
        <aggregate-warnings value="5"/>
    </report>

</configuration>
-->

<net version="1.9" junctionCornerDetail="5" limitTurnSpeed="5.50" xmlns:xsi="http://www.w3.org/2001/XMLSchema-instance" xsi:noNamespaceSchemaLocation="http://sumo.dlr.de/xsd/net_file.xsd">

    <location netOffset="0.00,0.00" convBoundary="-28.12,43.75,43.75,56.25" origBoundary="10000000000.00,10000000000.00,-10000000000.00,-10000000000.00" projParameter="!"/>

    <edge id=":J2_0" function="internal">
        <lane id=":J2_0_0" index="0" speed="13.89" length="0.32" shape="-6.57,54.65 -6.47,54.65 -6.41,54.65 -6.35,54.64 -6.25,54.62"/>
    </edge>
    <edge id=":J3_0" function="internal">
        <lane id=":J3_0_0" index="0" speed="13.89" length="19.31" shape="7.84,44.94 12.17,45.89 17.29,47.04 22.43,48.00 26.82,48.40"/>
    </edge>
    <edge id=":J3_1" function="internal">
        <lane id=":J3_1_0" index="0" speed="13.89" length="19.63" shape="7.18,48.40 26.82,48.40"/>
    </edge>
    <edge id=":J3_2" function="internal">
        <lane id=":J3_2_0" index="0" speed="13.89" length="19.62" shape="7.53,51.86 11.91,50.91 17.14,49.76 22.38,48.80 26.82,48.40"/>
    </edge>
    <edge id=":J4_0" function="internal">
        <lane id=":J4_0_0" index="0" speed="13.89" length="0.10" shape="-6.25,48.40 -6.25,48.40"/>
    </edge>
    <edge id=":J5_0" function="internal">
        <lane id=":J5_0_0" index="0" speed="13.89" length="0.32" shape="-6.25,42.15 -6.16,42.15 -6.09,42.15 -6.03,42.16 -5.94,42.18"/>
    </edge>

    <edge id="E0" from="J2" to="J3" priority="-1">
        <lane id="E0_0" index="0" speed="13.89" length="14.05" shape="-6.25,54.62 7.53,51.86"/>
    </edge>
    <edge id="E1" from="J4" to="J3" priority="-1">
        <lane id="E1_0" index="0" speed="13.89" length="13.43" shape="-6.25,48.40 7.18,48.40"/>
    </edge>
    <edge id="E2" from="J5" to="J3" priority="-1">
        <lane id="E2_0" index="0" speed="13.89" length="14.05" shape="-5.94,42.18 7.84,44.94"/>
    </edge>
    <edge id="E3" from="J3" to="J6" priority="-1">
        <lane id="E3_0" index="0" speed="13.89" length="16.93" shape="26.82,48.40 43.75,48.40"/>
    </edge>
    <edge id="E4" from="J7" to="J2" priority="-1">
        <lane id="E4_0" index="0" speed="13.89" length="21.56" shape="-28.12,54.65 -6.57,54.65"/>
    </edge>
    <edge id="E5" from="J8" to="J4" priority="-1">
        <lane id="E5_0" index="0" speed="13.89" length="21.88" shape="-28.12,48.40 -6.25,48.40"/>
    </edge>
    <edge id="E6" from="J9" to="J5" priority="-1">
        <lane id="E6_0" index="0" speed="13.89" length="21.88" shape="-28.12,42.15 -6.25,42.15"/>
    </edge>

    <junction id="J2" type="priority" x="-6.25" y="56.25" incLanes="E4_0" intLanes=":J2_0_0" shape="-5.94,56.19 -6.57,53.05 -6.57,56.25 -6.33,56.25 -6.25,56.24 -6.17,56.23 -6.07,56.21">
        <request index="0" response="0" foes="0" cont="0"/>
    </junction>
    <junction id="J3" type="priority" x="25.00" y="50.00" incLanes="E2_0 E1_0 E0_0" intLanes=":J3_0_0 :J3_1_0 :J3_2_0" shape="26.82,50.00 26.82,46.80 22.79,46.67 19.83,46.32 17.42,45.78 15.02,45.08 12.11,44.27 8.16,43.37 7.53,46.51 7.18,46.80 7.18,50.00 7.21,50.29 7.84,53.43 11.86,52.52 14.82,51.70 17.26,51.01 19.71,50.47 22.72,50.12">
        <request index="0" response="000" foes="110" cont="0"/>
        <request index="1" response="101" foes="101" cont="0"/>
        <request index="2" response="001" foes="011" cont="0"/>
    </junction>
    <junction id="J4" type="priority" x="-6.25" y="50.00" incLanes="E5_0" intLanes=":J4_0_0" shape="-6.25,50.00 -6.25,46.80 -6.25,50.00">
        <request index="0" response="0" foes="0" cont="0"/>
    </junction>
    <junction id="J5" type="priority" x="-6.25" y="43.75" incLanes="E6_0" intLanes=":J5_0_0" shape="-6.25,43.75 -5.62,40.61 -5.85,40.57 -5.93,40.56 -6.02,40.55 -6.12,40.55 -6.25,40.55">
        <request index="0" response="0" foes="0" cont="0"/>
    </junction>
    <junction id="J6" type="dead_end" x="43.75" y="50.00" incLanes="E3_0" intLanes="" shape="43.75,46.80 43.75,50.00"/>
    <junction id="J7" type="dead_end" x="-28.12" y="56.25" incLanes="" intLanes="" shape="-28.12,56.25 -28.12,53.05"/>
    <junction id="J8" type="dead_end" x="-28.12" y="50.00" incLanes="" intLanes="" shape="-28.12,50.00 -28.12,46.80"/>
    <junction id="J9" type="dead_end" x="-28.12" y="43.75" incLanes="" intLanes="" shape="-28.12,43.75 -28.12,40.55"/>

    <connection from="E0" to="E3" fromLane="0" toLane="0" via=":J3_2_0" dir="s" state="m"/>
    <connection from="E1" to="E3" fromLane="0" toLane="0" via=":J3_1_0" dir="s" state="m"/>
    <connection from="E2" to="E3" fromLane="0" toLane="0" via=":J3_0_0" dir="s" state="M"/>
    <connection from="E4" to="E0" fromLane="0" toLane="0" via=":J2_0_0" dir="s" state="M"/>
    <connection from="E5" to="E1" fromLane="0" toLane="0" via=":J4_0_0" dir="s" state="M"/>
    <connection from="E6" to="E2" fromLane="0" toLane="0" via=":J5_0_0" dir="s" state="M"/>

    <connection from=":J2_0" to="E0" fromLane="0" toLane="0" dir="s" state="M"/>
    <connection from=":J3_0" to="E3" fromLane="0" toLane="0" dir="s" state="M"/>
    <connection from=":J3_1" to="E3" fromLane="0" toLane="0" dir="s" state="M"/>
    <connection from=":J3_2" to="E3" fromLane="0" toLane="0" dir="s" state="M"/>
    <connection from=":J4_0" to="E1" fromLane="0" toLane="0" dir="s" state="M"/>
    <connection from=":J5_0" to="E2" fromLane="0" toLane="0" dir="s" state="M"/>

</net>
