<?xml version="1.0" encoding="UTF-8"?>

<!-- generated on 2022-04-29 09:34:16 by Eclipse SUMO netedit Version 1.12.0
<configuration xmlns:xsi="http://www.w3.org/2001/XMLSchema-instance" xsi:noNamespaceSchemaLocation="http://sumo.dlr.de/xsd/netconvertConfiguration.xsd">

    <input>
        <sumo-net-file value="/home/nando/Dev/SMARTS/baselines/marl_benchmark/scenarios/custom/merge/merge40_lanes12/map.net.xml"/>
    </input>

    <output>
        <output-file value="/home/nando/Dev/SMARTS/baselines/marl_benchmark/scenarios/custom/merge/merge40_lanes12/map.net.xml"/>
    </output>

    <processing>
        <geometry.min-radius.fix.railways value="false"/>
        <geometry.max-grade.fix value="false"/>
        <offset.disable-normalization value="true"/>
        <lefthand value="false"/>
    </processing>

    <junctions>
        <no-turnarounds value="true"/>
        <junctions.corner-detail value="5"/>
        <junctions.limit-turn-speed value="5.5"/>
        <rectangular-lane-cut value="false"/>
    </junctions>

    <pedestrian>
        <walkingareas value="false"/>
    </pedestrian>

    <report>
        <aggregate-warnings value="5"/>
    </report>

</configuration>
-->

<net version="1.9" junctionCornerDetail="5" limitTurnSpeed="5.50" xmlns:xsi="http://www.w3.org/2001/XMLSchema-instance" xsi:noNamespaceSchemaLocation="http://sumo.dlr.de/xsd/net_file.xsd">

    <location netOffset="0.00,0.00" convBoundary="-3.12,-12.50,40.62,10.94" origBoundary="-10000000000.00,-10000000000.00,10000000000.00,10000000000.00" projParameter="!"/>

    <edge id=":J5_0" function="internal">
        <lane id=":J5_0_0" index="0" speed="11.63" length="7.76" shape="9.66,-5.90 11.62,-4.85 13.15,-4.57 14.80,-4.68 17.12,-4.80"/>
    </edge>
    <edge id=":J5_1" function="internal">
        <lane id=":J5_1_0" index="0" speed="9.27" length="5.17" shape="12.45,0.27 13.70,-0.63 14.62,-1.21 15.62,-1.51 17.12,-1.60"/>
    </edge>

    <edge id="E2" from="J4" to="J5" priority="-1">
        <lane id="E2_0" index="0" speed="16.00" length="16.32" shape="-0.92,9.63 12.45,0.27"/>
    </edge>
    <edge id="E3" from="J6" to="J5" priority="-1">
        <lane id="E3_0" index="0" speed="16.00" length="14.29" shape="-2.23,-13.83 9.66,-5.90"/>
    </edge>
    <edge id="E4" from="J5" to="J7" priority="-1">
        <lane id="E4_0" index="0" speed="16.00" length="23.50" shape="17.12,-4.80 40.62,-4.80"/>
        <lane id="E4_1" index="1" speed="16.00" length="23.50" shape="17.12,-1.60 40.62,-1.60"/>
    </edge>

    <junction id="J4" type="dead_end" x="0.00" y="10.94" incLanes="" intLanes="" shape="0.00,10.94 -1.84,8.32"/>
    <junction id="J5" type="priority" x="15.62" y="0.00" incLanes="E3_0 E2_0" intLanes=":J5_0_0 :J5_1_0" shape="17.12,0.00 17.12,-6.40 14.55,-6.21 13.62,-6.13 12.74,-6.20 11.76,-6.53 10.54,-7.23 8.77,-4.57 10.85,-2.99 11.46,-2.36 11.77,-1.82 11.80,-1.38 11.53,-1.05 13.37,1.58 14.63,0.65 15.11,0.35 15.61,0.15 16.25,0.04">
        <request index="0" response="00" foes="00" cont="0"/>
        <request index="1" response="00" foes="00" cont="0"/>
    </junction>
    <junction id="J6" type="dead_end" x="-3.12" y="-12.50" incLanes="" intLanes="" shape="-3.12,-12.50 -1.34,-15.16"/>
    <junction id="J7" type="dead_end" x="40.62" y="0.00" incLanes="E4_0 E4_1" intLanes="" shape="40.62,-6.40 40.62,0.00"/>

    <connection from="E2" to="E4" fromLane="0" toLane="1" via=":J5_1_0" dir="s" state="M"/>
    <connection from="E3" to="E4" fromLane="0" toLane="0" via=":J5_0_0" dir="s" state="M"/>

    <connection from=":J5_0" to="E4" fromLane="0" toLane="0" dir="s" state="M"/>
    <connection from=":J5_1" to="E4" fromLane="0" toLane="1" dir="s" state="M"/>

</net>
