<?xml version="1.0" encoding="UTF-8"?>

<!-- generated on 2022-05-02 13:35:02 by Eclipse SUMO netedit Version 1.12.0
<configuration xmlns:xsi="http://www.w3.org/2001/XMLSchema-instance" xsi:noNamespaceSchemaLocation="http://sumo.dlr.de/xsd/netconvertConfiguration.xsd">

    <input>
        <sumo-net-file value="/home/nando/Dev/SMARTS/baselines/marl_benchmark/scenarios/custom/merge/merge40_lanes12/test.net.xml"/>
    </input>

    <output>
        <output-file value="/home/nando/Dev/SMARTS/baselines/marl_benchmark/scenarios/custom/merge/merge40_lanes12/test.net.xml"/>
    </output>

    <processing>
        <geometry.min-radius.fix.railways value="false"/>
        <geometry.max-grade.fix value="false"/>
        <offset.disable-normalization value="true"/>
        <lefthand value="false"/>
    </processing>

    <junctions>
        <no-turnarounds value="true"/>
        <junctions.corner-detail value="5"/>
        <junctions.limit-turn-speed value="5.5"/>
        <rectangular-lane-cut value="false"/>
    </junctions>

    <pedestrian>
        <walkingareas value="false"/>
    </pedestrian>

    <report>
        <aggregate-warnings value="5"/>
    </report>

</configuration>
-->

<net version="1.9" junctionCornerDetail="5" limitTurnSpeed="5.50" xmlns:xsi="http://www.w3.org/2001/XMLSchema-instance" xsi:noNamespaceSchemaLocation="http://sumo.dlr.de/xsd/net_file.xsd">

    <location netOffset="0.00,0.00" convBoundary="-687.50,-206.25,68.75,1206.25" origBoundary="-10000000000.00,-10000000000.00,10000000000.00,10000000000.00" projParameter="!"/>

    <edge id=":J100_0" function="internal">
        <lane id=":J100_0_0" index="0" speed="13.89" length="3.93" shape="-330.45,1052.70 -330.42,1052.59 -330.41,1052.51 -330.40,1052.43 -330.40,1052.31"/>
        <lane id=":J100_0_1" index="1" speed="13.89" length="3.93" shape="-327.34,1053.47 -327.26,1053.14 -327.22,1052.90 -327.20,1052.66 -327.20,1052.31"/>
        <lane id=":J100_0_2" index="2" speed="13.89" length="3.93" shape="-324.24,1054.25 -324.10,1053.69 -324.03,1053.29 -324.00,1052.89 -324.00,1052.31"/>
        <lane id=":J100_0_3" index="3" speed="13.89" length="3.93" shape="-321.13,1055.03 -320.94,1054.23 -320.84,1053.68 -320.81,1053.13 -320.80,1052.31"/>
        <lane id=":J100_0_4" index="4" speed="13.89" length="3.93" shape="-318.03,1055.80 -317.78,1054.78 -317.65,1054.08 -317.61,1053.36 -317.60,1052.31"/>
        <lane id=":J100_0_5" index="5" speed="13.89" length="3.93" shape="-314.93,1056.58 -314.62,1055.33 -314.47,1054.47 -314.41,1053.59 -314.40,1052.31"/>
        <lane id=":J100_0_6" index="6" speed="13.89" length="3.93" shape="-311.82,1057.36 -311.46,1055.88 -311.28,1054.86 -311.21,1053.82 -311.20,1052.31"/>
        <lane id=":J100_0_7" index="7" speed="13.89" length="3.93" shape="-308.72,1058.13 -308.30,1056.43 -308.09,1055.25 -308.01,1054.06 -308.00,1052.31"/>
        <lane id=":J100_0_8" index="8" speed="13.89" length="3.93" shape="-305.61,1058.91 -305.15,1056.98 -304.90,1055.65 -304.81,1054.29 -304.80,1052.31"/>
        <lane id=":J100_0_9" index="9" speed="13.89" length="3.93" shape="-302.51,1059.68 -301.99,1057.53 -301.72,1056.04 -301.62,1054.52 -301.60,1052.31"/>
    </edge>
    <edge id=":J103_0" function="internal">
        <lane id=":J103_0_0" index="0" speed="13.89" length="4.46" shape="-330.40,1023.23 -330.40,1023.10 -330.41,1023.01 -330.43,1022.92 -330.46,1022.79"/>
        <lane id=":J103_0_1" index="1" speed="13.89" length="4.46" shape="-327.20,1023.23 -327.20,1022.83 -327.22,1022.56 -327.28,1022.30 -327.38,1021.91"/>
        <lane id=":J103_0_2" index="2" speed="13.89" length="4.46" shape="-324.00,1023.23 -324.01,1022.57 -324.04,1022.12 -324.13,1021.67 -324.31,1021.03"/>
        <lane id=":J103_0_3" index="3" speed="13.89" length="4.46" shape="-320.80,1023.23 -320.81,1022.31 -320.86,1021.67 -320.98,1021.05 -321.23,1020.15"/>
        <lane id=":J103_0_4" index="4" speed="13.89" length="4.46" shape="-317.60,1023.23 -317.61,1022.04 -317.67,1021.22 -317.84,1020.42 -318.15,1019.28"/>
        <lane id=":J103_0_5" index="5" speed="13.89" length="4.46" shape="-314.40,1023.23 -314.41,1021.78 -314.49,1020.78 -314.69,1019.80 -315.08,1018.40"/>
        <lane id=":J103_0_6" index="6" speed="13.89" length="4.46" shape="-311.20,1023.23 -311.21,1021.51 -311.30,1020.33 -311.54,1019.17 -312.00,1017.52"/>
        <lane id=":J103_0_7" index="7" speed="13.89" length="4.46" shape="-308.00,1023.23 -308.02,1021.25 -308.12,1019.89 -308.39,1018.55 -308.92,1016.64"/>
        <lane id=":J103_0_8" index="8" speed="13.89" length="4.46" shape="-304.80,1023.23 -304.82,1020.98 -304.93,1019.44 -305.25,1017.93 -305.85,1015.76"/>
        <lane id=":J103_0_9" index="9" speed="13.89" length="4.46" shape="-301.60,1023.23 -301.62,1020.72 -301.75,1019.00 -302.10,1017.30 -302.77,1014.88"/>
    </edge>
    <edge id=":J104_0" function="internal">
        <lane id=":J104_0_0" index="0" speed="13.89" length="2.34" shape="-353.59,941.85 -353.61,941.78 -353.62,941.74 -353.64,941.69 -353.67,941.63"/>
        <lane id=":J104_0_1" index="1" speed="13.89" length="2.34" shape="-350.51,940.97 -350.57,940.77 -350.61,940.64 -350.67,940.50 -350.75,940.31"/>
        <lane id=":J104_0_2" index="2" speed="13.89" length="2.34" shape="-347.43,940.09 -347.53,939.76 -347.60,939.53 -347.69,939.31 -347.84,939.00"/>
        <lane id=":J104_0_3" index="3" speed="13.89" length="2.34" shape="-344.36,939.21 -344.49,938.75 -344.60,938.43 -344.72,938.12 -344.92,937.68"/>
        <lane id=":J104_0_4" index="4" speed="13.89" length="2.34" shape="-341.28,938.33 -341.45,937.73 -341.59,937.33 -341.75,936.93 -342.00,936.36"/>
        <lane id=":J104_0_5" index="5" speed="13.89" length="2.34" shape="-338.20,937.45 -338.42,936.72 -338.58,936.23 -338.78,935.74 -339.09,935.05"/>
        <lane id=":J104_0_6" index="6" speed="13.89" length="2.34" shape="-335.13,936.58 -335.38,935.71 -335.57,935.12 -335.80,934.55 -336.17,933.73"/>
        <lane id=":J104_0_7" index="7" speed="13.89" length="2.34" shape="-332.05,935.70 -332.34,934.70 -332.56,934.02 -332.83,933.36 -333.25,932.41"/>
        <lane id=":J104_0_8" index="8" speed="13.89" length="2.34" shape="-328.97,934.82 -329.30,933.69 -329.55,932.92 -329.86,932.17 -330.34,931.09"/>
        <lane id=":J104_0_9" index="9" speed="13.89" length="2.34" shape="-325.90,933.94 -326.26,932.67 -326.54,931.82 -326.88,930.98 -327.42,929.78"/>
    </edge>
    <edge id=":J105_0" function="internal">
        <lane id=":J105_0_0" index="0" speed="13.89" length="1.33" shape="-440.21,750.01 -441.15,747.67"/>
        <lane id=":J105_0_1" index="1" speed="13.89" length="1.33" shape="-437.29,748.70 -438.13,746.60"/>
        <lane id=":J105_0_2" index="2" speed="13.89" length="1.33" shape="-434.37,747.38 -435.12,745.53"/>
        <lane id=":J105_0_3" index="3" speed="13.89" length="1.33" shape="-431.46,746.06 -432.10,744.46"/>
        <lane id=":J105_0_4" index="4" speed="13.89" length="1.33" shape="-428.54,744.74 -429.09,743.39"/>
        <lane id=":J105_0_5" index="5" speed="13.89" length="1.33" shape="-425.62,743.43 -426.07,742.32"/>
        <lane id=":J105_0_6" index="6" speed="13.89" length="1.33" shape="-422.71,742.11 -423.06,741.25"/>
        <lane id=":J105_0_7" index="7" speed="13.89" length="1.33" shape="-419.79,740.79 -420.04,740.18"/>
        <lane id=":J105_0_8" index="8" speed="13.89" length="1.33" shape="-416.87,739.48 -417.02,739.11"/>
        <lane id=":J105_0_9" index="9" speed="13.89" length="1.33" shape="-413.96,738.16 -414.01,738.04"/>
    </edge>
    <edge id=":J106_0" function="internal">
        <lane id=":J106_0_0" index="0" speed="13.89" length="2.92" shape="-578.65,360.17 -579.19,358.61 -579.52,357.53 -579.75,356.43 -580.02,354.80"/>
        <lane id=":J106_0_1" index="1" speed="13.89" length="2.92" shape="-575.63,359.10 -576.12,357.71 -576.41,356.74 -576.62,355.75 -576.86,354.30"/>
        <lane id=":J106_0_2" index="2" speed="13.89" length="2.92" shape="-572.62,358.03 -573.05,356.80 -573.30,355.95 -573.49,355.07 -573.70,353.79"/>
        <lane id=":J106_0_3" index="3" speed="13.89" length="2.92" shape="-569.60,356.96 -569.97,355.89 -570.20,355.15 -570.36,354.40 -570.54,353.29"/>
        <lane id=":J106_0_4" index="4" speed="13.89" length="2.92" shape="-566.59,355.89 -566.90,354.99 -567.09,354.36 -567.22,353.72 -567.38,352.78"/>
        <lane id=":J106_0_5" index="5" speed="13.89" length="2.92" shape="-563.57,354.82 -563.83,354.08 -563.98,353.57 -564.09,353.04 -564.22,352.28"/>
        <lane id=":J106_0_6" index="6" speed="13.89" length="2.92" shape="-560.56,353.75 -560.76,353.17 -560.87,352.77 -560.96,352.37 -561.06,351.77"/>
        <lane id=":J106_0_7" index="7" speed="13.89" length="2.92" shape="-557.54,352.68 -557.68,352.27 -557.77,351.98 -557.83,351.69 -557.90,351.26"/>
        <lane id=":J106_0_8" index="8" speed="13.89" length="2.92" shape="-554.52,351.61 -554.61,351.36 -554.66,351.19 -554.70,351.01 -554.74,350.76"/>
        <lane id=":J106_0_9" index="9" speed="13.89" length="2.92" shape="-551.51,350.54 -551.54,350.45 -551.55,350.40 -551.57,350.34 -551.58,350.25"/>
    </edge>
    <edge id=":J109_0" function="internal">
        <lane id=":J109_0_0" index="0" speed="13.89" length="1.23" shape="-664.14,89.69 -664.20,89.59"/>
        <lane id=":J109_0_1" index="1" speed="13.89" length="1.23" shape="-661.28,88.26 -661.46,87.94"/>
        <lane id=":J109_0_2" index="2" speed="13.89" length="1.23" shape="-658.42,86.83 -658.71,86.29"/>
        <lane id=":J109_0_3" index="3" speed="13.89" length="1.23" shape="-655.55,85.40 -655.97,84.65"/>
        <lane id=":J109_0_4" index="4" speed="13.89" length="1.23" shape="-652.69,83.97 -653.22,83.00"/>
        <lane id=":J109_0_5" index="5" speed="13.89" length="1.23" shape="-649.83,82.54 -650.48,81.35"/>
        <lane id=":J109_0_6" index="6" speed="13.89" length="1.23" shape="-646.97,81.11 -647.74,79.71"/>
        <lane id=":J109_0_7" index="7" speed="13.89" length="1.23" shape="-644.11,79.68 -644.99,78.06"/>
        <lane id=":J109_0_8" index="8" speed="13.89" length="1.23" shape="-641.24,78.25 -642.25,76.42"/>
        <lane id=":J109_0_9" index="9" speed="13.89" length="1.23" shape="-638.38,76.81 -639.50,74.77"/>
    </edge>
    <edge id=":J110_0" function="internal">
        <lane id=":J110_0_0" index="0" speed="13.89" length="5.51" shape="-701.07,28.14 -702.64,25.47 -703.56,23.54 -704.17,21.49 -704.81,18.46"/>
        <lane id=":J110_0_1" index="1" speed="13.89" length="5.51" shape="-698.32,26.49 -699.73,24.10 -700.55,22.38 -701.10,20.55 -701.67,17.83"/>
        <lane id=":J110_0_2" index="2" speed="13.89" length="5.51" shape="-695.58,24.85 -696.82,22.74 -697.55,21.22 -698.03,19.60 -698.53,17.21"/>
        <lane id=":J110_0_3" index="3" speed="13.89" length="5.51" shape="-692.84,23.20 -693.91,21.37 -694.54,20.05 -694.96,18.65 -695.40,16.58"/>
        <lane id=":J110_0_4" index="4" speed="13.89" length="5.51" shape="-690.09,21.56 -691.00,20.01 -691.53,18.89 -691.89,17.71 -692.26,15.95"/>
        <lane id=":J110_0_5" index="5" speed="13.89" length="5.51" shape="-687.35,19.91 -688.09,18.64 -688.53,17.73 -688.82,16.76 -689.12,15.32"/>
        <lane id=":J110_0_6" index="6" speed="13.89" length="5.51" shape="-684.60,18.26 -685.18,17.28 -685.52,16.57 -685.75,15.81 -685.98,14.70"/>
        <lane id=":J110_0_7" index="7" speed="13.82" length="5.51" shape="-681.86,16.62 -682.27,15.91 -682.52,15.41 -682.68,14.87 -682.84,14.07"/>
        <lane id=":J110_0_8" index="8" speed="10.79" length="5.51" shape="-679.12,14.97 -679.36,14.55 -679.51,14.24 -679.61,13.92 -679.71,13.44"/>
        <lane id=":J110_0_9" index="9" speed="13.89" length="5.51" shape="-676.37,13.32 -676.45,13.18 -676.50,13.08 -676.54,12.97 -676.57,12.81"/>
    </edge>
    <edge id=":J58_0" function="internal">
        <lane id=":J58_0_0" index="0" speed="13.89" length="3.16" shape="-717.31,-44.04 -717.65,-45.79 -717.83,-47.00 -717.89,-48.22 -717.90,-50.00"/>
        <lane id=":J58_0_1" index="1" speed="13.89" length="3.16" shape="-714.17,-44.67 -714.48,-46.23 -714.63,-47.31 -714.69,-48.41 -714.70,-50.00"/>
        <lane id=":J58_0_2" index="2" speed="13.89" length="3.16" shape="-711.03,-45.29 -711.30,-46.67 -711.44,-47.63 -711.49,-48.59 -711.50,-50.00"/>
        <lane id=":J58_0_3" index="3" speed="13.89" length="3.16" shape="-707.90,-45.92 -708.13,-47.12 -708.25,-47.95 -708.29,-48.78 -708.30,-50.00"/>
        <lane id=":J58_0_4" index="4" speed="13.89" length="3.16" shape="-704.76,-46.55 -704.96,-47.56 -705.06,-48.26 -705.09,-48.97 -705.10,-50.00"/>
        <lane id=":J58_0_5" index="5" speed="13.89" length="3.16" shape="-701.62,-47.18 -701.78,-48.00 -701.86,-48.58 -701.90,-49.16 -701.90,-50.00"/>
        <lane id=":J58_0_6" index="6" speed="13.89" length="3.16" shape="-698.48,-47.80 -698.61,-48.45 -698.67,-48.89 -698.70,-49.34 -698.70,-50.00"/>
        <lane id=":J58_0_7" index="7" speed="13.89" length="3.16" shape="-695.34,-48.43 -695.43,-48.89 -695.48,-49.21 -695.50,-49.53 -695.50,-50.00"/>
        <lane id=":J58_0_8" index="8" speed="13.89" length="3.16" shape="-692.21,-49.06 -692.26,-49.33 -692.29,-49.53 -692.30,-49.72 -692.30,-50.00"/>
        <lane id=":J58_0_9" index="9" speed="13.89" length="3.16" shape="-689.07,-49.69 -689.09,-49.78 -689.10,-49.84 -689.10,-49.91 -689.10,-50.00"/>
    </edge>
    <edge id=":J59_0" function="internal">
        <lane id=":J59_0_0" index="0" speed="13.89" length="5.77" shape="-717.90,-100.00 -717.87,-103.24 -717.65,-105.47 -717.07,-107.63 -715.96,-110.67"/>
        <lane id=":J59_0_1" index="1" speed="13.89" length="5.77" shape="-714.70,-100.00 -714.67,-102.90 -714.47,-104.89 -713.96,-106.82 -712.97,-109.55"/>
        <lane id=":J59_0_2" index="2" speed="13.89" length="5.77" shape="-711.50,-100.00 -711.47,-102.56 -711.30,-104.32 -710.84,-106.02 -709.97,-108.43"/>
        <lane id=":J59_0_3" index="3" speed="13.89" length="5.77" shape="-708.30,-100.00 -708.28,-102.22 -708.13,-103.74 -707.73,-105.22 -706.98,-107.30"/>
        <lane id=":J59_0_4" index="4" speed="13.89" length="5.77" shape="-705.10,-100.00 -705.08,-101.88 -704.95,-103.16 -704.62,-104.42 -703.98,-106.18"/>
        <lane id=":J59_0_5" index="5" speed="13.89" length="5.77" shape="-701.90,-100.00 -701.88,-101.54 -701.78,-102.59 -701.51,-103.61 -700.98,-105.06"/>
        <lane id=":J59_0_6" index="6" speed="13.89" length="5.77" shape="-698.70,-100.00 -698.69,-101.19 -698.61,-102.01 -698.39,-102.81 -697.99,-103.93"/>
        <lane id=":J59_0_7" index="7" speed="12.96" length="5.77" shape="-695.50,-100.00 -695.49,-100.85 -695.43,-101.44 -695.28,-102.01 -694.99,-102.81"/>
        <lane id=":J59_0_8" index="8" speed="10.12" length="5.77" shape="-692.30,-100.00 -692.29,-100.51 -692.26,-100.86 -692.17,-101.20 -691.99,-101.69"/>
        <lane id=":J59_0_9" index="9" speed="13.89" length="5.77" shape="-689.10,-100.00 -689.10,-100.17 -689.09,-100.29 -689.06,-100.40 -689.00,-100.56"/>
    </edge>
    <edge id=":J60_0" function="internal">
        <lane id=":J60_0_0" index="0" speed="13.89" length="10.90" shape="-697.21,-160.67 -694.93,-166.31 -692.70,-169.96 -689.52,-172.81 -684.39,-176.07"/>
        <lane id=":J60_0_1" index="1" speed="13.89" length="10.90" shape="-694.22,-159.55 -692.18,-164.59 -690.18,-167.86 -687.34,-170.41 -682.74,-173.32"/>
        <lane id=":J60_0_2" index="2" speed="13.89" length="10.90" shape="-691.22,-158.43 -689.42,-162.88 -687.66,-165.75 -685.15,-168.01 -681.10,-170.58"/>
        <lane id=":J60_0_3" index="3" speed="13.89" length="10.90" shape="-688.23,-157.30 -686.67,-161.16 -685.14,-163.65 -682.96,-165.60 -679.45,-167.84"/>
        <lane id=":J60_0_4" index="4" speed="12.86" length="10.90" shape="-685.23,-156.18 -683.91,-159.44 -682.62,-161.55 -680.78,-163.20 -677.81,-165.09"/>
        <lane id=":J60_0_5" index="5" speed="11.66" length="10.90" shape="-682.23,-155.06 -681.15,-157.73 -680.10,-159.45 -678.59,-160.80 -676.16,-162.35"/>
        <lane id=":J60_0_6" index="6" speed="10.33" length="10.90" shape="-679.24,-153.93 -678.40,-156.01 -677.58,-157.35 -676.40,-158.40 -674.51,-159.60"/>
        <lane id=":J60_0_7" index="7" speed="8.81" length="10.90" shape="-676.24,-152.81 -675.64,-154.29 -675.05,-155.25 -674.22,-156.00 -672.87,-156.86"/>
        <lane id=":J60_0_8" index="8" speed="6.95" length="10.90" shape="-673.24,-151.69 -672.88,-152.58 -672.53,-153.15 -672.03,-153.60 -671.22,-154.12"/>
        <lane id=":J60_0_9" index="9" speed="4.36" length="10.90" shape="-670.25,-150.56 -670.13,-150.86 -670.01,-151.05 -669.84,-151.20 -669.57,-151.37"/>
    </edge>
    <edge id=":J61_0" function="internal">
        <lane id=":J61_0_0" index="0" speed="13.89" length="6.70" shape="-653.14,-194.82 -649.89,-196.71 -647.52,-197.79 -645.00,-198.40 -641.27,-198.92"/>
        <lane id=":J61_0_1" index="1" speed="13.89" length="6.70" shape="-651.49,-192.07 -648.59,-193.77 -646.47,-194.73 -644.21,-195.28 -640.87,-195.74"/>
        <lane id=":J61_0_2" index="2" speed="13.89" length="6.70" shape="-649.85,-189.33 -647.28,-190.82 -645.41,-191.67 -643.42,-192.16 -640.48,-192.56"/>
        <lane id=":J61_0_3" index="3" speed="13.89" length="6.70" shape="-648.20,-186.59 -645.98,-187.88 -644.36,-188.62 -642.63,-189.04 -640.08,-189.39"/>
        <lane id=":J61_0_4" index="4" speed="13.89" length="6.70" shape="-646.56,-183.84 -644.67,-184.94 -643.30,-185.56 -641.84,-185.92 -639.68,-186.21"/>
        <lane id=":J61_0_5" index="5" speed="13.89" length="6.70" shape="-644.91,-181.10 -643.37,-181.99 -642.25,-182.50 -641.05,-182.80 -639.29,-183.04"/>
        <lane id=":J61_0_6" index="6" speed="13.10" length="6.70" shape="-643.26,-178.35 -642.07,-179.05 -641.19,-179.45 -640.26,-179.67 -638.89,-179.86"/>
        <lane id=":J61_0_7" index="7" speed="11.13" length="6.70" shape="-641.62,-175.61 -640.76,-176.11 -640.14,-176.39 -639.47,-176.55 -638.49,-176.69"/>
        <lane id=":J61_0_8" index="8" speed="8.72" length="6.70" shape="-639.97,-172.87 -639.46,-173.16 -639.08,-173.33 -638.68,-173.43 -638.10,-173.51"/>
        <lane id=":J61_0_9" index="9" speed="13.89" length="6.70" shape="-638.32,-170.12 -638.15,-170.22 -638.03,-170.28 -637.89,-170.31 -637.70,-170.34"/>
    </edge>
    <edge id=":J62_0" function="internal">
        <lane id=":J62_0_0" index="0" speed="13.89" length="4.27" shape="-591.27,-205.17 -588.88,-205.45 -587.23,-205.53 -585.58,-205.42 -583.20,-205.09"/>
        <lane id=":J62_0_1" index="1" speed="13.89" length="4.27" shape="-590.87,-201.99 -588.74,-202.24 -587.26,-202.32 -585.79,-202.21 -583.65,-201.93"/>
        <lane id=":J62_0_2" index="2" speed="13.89" length="4.27" shape="-590.48,-198.81 -588.59,-199.04 -587.29,-199.10 -585.99,-199.01 -584.11,-198.76"/>
        <lane id=":J62_0_3" index="3" speed="13.89" length="4.27" shape="-590.08,-195.64 -588.45,-195.83 -587.32,-195.89 -586.19,-195.81 -584.56,-195.59"/>
        <lane id=":J62_0_4" index="4" speed="13.89" length="4.27" shape="-589.68,-192.46 -588.30,-192.63 -587.34,-192.68 -586.39,-192.61 -585.01,-192.42"/>
        <lane id=":J62_0_5" index="5" speed="13.89" length="4.27" shape="-589.29,-189.29 -588.15,-189.42 -587.37,-189.46 -586.59,-189.41 -585.46,-189.26"/>
        <lane id=":J62_0_6" index="6" speed="13.89" length="4.27" shape="-588.89,-186.11 -588.01,-186.22 -587.40,-186.25 -586.79,-186.21 -585.92,-186.09"/>
        <lane id=":J62_0_7" index="7" speed="13.89" length="4.27" shape="-588.49,-182.94 -587.86,-183.01 -587.43,-183.03 -587.00,-183.00 -586.37,-182.92"/>
        <lane id=":J62_0_8" index="8" speed="13.89" length="4.27" shape="-588.10,-179.76 -587.72,-179.81 -587.46,-179.82 -587.20,-179.80 -586.82,-179.75"/>
        <lane id=":J62_0_9" index="9" speed="13.89" length="4.27" shape="-587.70,-176.59 -587.57,-176.60 -587.49,-176.61 -587.40,-176.60 -587.27,-176.58"/>
    </edge>
    <edge id=":J63_0" function="internal">
        <lane id=":J63_0_0" index="0" speed="13.89" length="8.09" shape="-539.45,-198.84 -534.97,-198.13 -531.94,-197.25 -529.18,-195.73 -525.51,-193.07"/>
        <lane id=":J63_0_1" index="1" speed="13.89" length="8.09" shape="-539.90,-195.68 -535.89,-195.04 -533.19,-194.25 -530.72,-192.89 -527.43,-190.51"/>
        <lane id=":J63_0_2" index="2" speed="13.89" length="8.09" shape="-540.36,-192.51 -536.82,-191.94 -534.43,-191.25 -532.25,-190.05 -529.35,-187.95"/>
        <lane id=":J63_0_3" index="3" speed="13.89" length="8.09" shape="-540.81,-189.34 -537.74,-188.85 -535.67,-188.25 -533.78,-187.21 -531.27,-185.39"/>
        <lane id=":J63_0_4" index="4" speed="13.89" length="8.09" shape="-541.26,-186.17 -538.67,-185.76 -536.91,-185.25 -535.32,-184.37 -533.19,-182.83"/>
        <lane id=":J63_0_5" index="5" speed="13.09" length="8.09" shape="-541.71,-183.01 -539.59,-182.67 -538.16,-182.25 -536.85,-181.53 -535.11,-180.27"/>
        <lane id=":J63_0_6" index="6" speed="11.59" length="8.09" shape="-542.17,-179.84 -540.52,-179.57 -539.40,-179.25 -538.38,-178.69 -537.03,-177.71"/>
        <lane id=":J63_0_7" index="7" speed="9.86" length="8.09" shape="-542.62,-176.67 -541.44,-176.48 -540.64,-176.25 -539.92,-175.85 -538.95,-175.15"/>
        <lane id=":J63_0_8" index="8" speed="7.75" length="8.09" shape="-543.07,-173.50 -542.36,-173.39 -541.89,-173.25 -541.45,-173.01 -540.87,-172.59"/>
        <lane id=":J63_0_9" index="9" speed="13.89" length="8.09" shape="-543.52,-170.33 -543.29,-170.30 -543.13,-170.25 -542.98,-170.17 -542.79,-170.03"/>
    </edge>
    <edge id=":J64_0" function="internal">
        <lane id=":J64_0_0" index="0" speed="13.89" length="7.47" shape="-500.51,-174.32 -497.19,-171.75 -495.11,-169.73 -493.49,-167.32 -491.56,-163.60"/>
        <lane id=":J64_0_1" index="1" speed="13.89" length="7.47" shape="-502.43,-171.76 -499.46,-169.46 -497.60,-167.65 -496.15,-165.49 -494.42,-162.16"/>
        <lane id=":J64_0_2" index="2" speed="13.89" length="7.47" shape="-504.35,-169.20 -501.73,-167.17 -500.09,-165.58 -498.81,-163.67 -497.28,-160.73"/>
        <lane id=":J64_0_3" index="3" speed="13.89" length="7.47" shape="-506.27,-166.64 -504.00,-164.88 -502.58,-163.50 -501.47,-161.85 -500.15,-159.30"/>
        <lane id=":J64_0_4" index="4" speed="13.89" length="7.47" shape="-508.19,-164.08 -506.27,-162.59 -505.06,-161.42 -504.13,-160.03 -503.01,-157.87"/>
        <lane id=":J64_0_5" index="5" speed="13.70" length="7.47" shape="-510.11,-161.52 -508.54,-160.30 -507.55,-159.35 -506.78,-158.20 -505.87,-156.44"/>
        <lane id=":J64_0_6" index="6" speed="12.12" length="7.47" shape="-512.03,-158.96 -510.81,-158.01 -510.04,-157.27 -509.44,-156.38 -508.73,-155.01"/>
        <lane id=":J64_0_7" index="7" speed="10.31" length="7.47" shape="-513.95,-156.40 -513.08,-155.72 -512.53,-155.19 -512.10,-154.56 -511.59,-153.58"/>
        <lane id=":J64_0_8" index="8" speed="8.09" length="7.47" shape="-515.87,-153.84 -515.35,-153.43 -515.02,-153.12 -514.76,-152.73 -514.46,-152.15"/>
        <lane id=":J64_0_9" index="9" speed="13.89" length="7.47" shape="-517.79,-151.28 -517.62,-151.14 -517.51,-151.04 -517.42,-150.91 -517.32,-150.72"/>
    </edge>
    <edge id=":J65_0" function="internal">
        <lane id=":J65_0_0" index="0" speed="13.89" length="5.17" shape="-481.38,-143.24 -481.31,-143.10 -481.26,-143.01 -481.19,-142.93 -481.08,-142.82"/>
        <lane id=":J65_0_1" index="1" speed="12.11" length="5.17" shape="-484.24,-141.81 -484.03,-141.40 -483.87,-141.13 -483.67,-140.89 -483.34,-140.56"/>
        <lane id=":J65_0_2" index="2" speed="13.89" length="5.17" shape="-487.11,-140.38 -486.76,-139.70 -486.48,-139.25 -486.14,-138.84 -485.61,-138.30"/>
        <lane id=":J65_0_3" index="3" speed="13.89" length="5.17" shape="-489.97,-138.95 -489.48,-137.99 -489.09,-137.37 -488.62,-136.80 -487.87,-136.04"/>
        <lane id=":J65_0_4" index="4" speed="13.89" length="5.17" shape="-492.83,-137.52 -492.20,-136.29 -491.71,-135.48 -491.10,-134.76 -490.13,-133.77"/>
        <lane id=":J65_0_5" index="5" speed="13.89" length="5.17" shape="-495.69,-136.08 -494.93,-134.59 -494.32,-133.60 -493.57,-132.71 -492.40,-131.51"/>
        <lane id=":J65_0_6" index="6" speed="13.89" length="5.17" shape="-498.55,-134.65 -497.65,-132.88 -496.93,-131.72 -496.05,-130.67 -494.66,-129.25"/>
        <lane id=":J65_0_7" index="7" speed="13.89" length="5.17" shape="-501.42,-133.22 -500.37,-131.18 -499.54,-129.83 -498.53,-128.62 -496.92,-126.98"/>
        <lane id=":J65_0_8" index="8" speed="13.89" length="5.17" shape="-504.28,-131.79 -503.09,-129.48 -502.16,-127.95 -501.01,-126.58 -499.18,-124.72"/>
        <lane id=":J65_0_9" index="9" speed="13.89" length="5.17" shape="-507.14,-130.36 -505.82,-127.77 -504.77,-126.07 -503.48,-124.53 -501.45,-122.46"/>
    </edge>
    <edge id=":J66_0" function="internal">
        <lane id=":J66_0_0" index="0" speed="4.45" length="10.05" shape="-467.01,-128.75 -466.79,-128.54 -466.62,-128.42 -466.43,-128.36 -466.14,-128.30"/>
        <lane id=":J66_0_1" index="1" speed="7.12" length="10.05" shape="-469.27,-126.48 -468.63,-125.87 -468.12,-125.52 -467.53,-125.31 -466.66,-125.14"/>
        <lane id=":J66_0_2" index="2" speed="9.03" length="10.05" shape="-471.53,-124.22 -470.46,-123.20 -469.62,-122.61 -468.64,-122.26 -467.19,-121.99"/>
        <lane id=":J66_0_3" index="3" speed="10.60" length="10.05" shape="-473.79,-121.96 -472.30,-120.53 -471.11,-119.70 -469.75,-119.22 -467.72,-118.83"/>
        <lane id=":J66_0_4" index="4" speed="11.96" length="10.05" shape="-476.06,-119.70 -474.13,-117.86 -472.61,-116.79 -470.85,-116.17 -468.24,-115.67"/>
        <lane id=":J66_0_5" index="5" speed="13.19" length="10.05" shape="-478.32,-117.43 -475.97,-115.19 -474.11,-113.88 -471.96,-113.12 -468.77,-112.52"/>
        <lane id=":J66_0_6" index="6" speed="13.89" length="10.05" shape="-480.58,-115.17 -477.80,-112.52 -475.60,-110.97 -473.07,-110.08 -469.29,-109.36"/>
        <lane id=":J66_0_7" index="7" speed="13.89" length="10.05" shape="-482.84,-112.91 -479.64,-109.85 -477.10,-108.07 -474.17,-107.03 -469.82,-106.21"/>
        <lane id=":J66_0_8" index="8" speed="13.89" length="10.05" shape="-485.11,-110.65 -481.48,-107.17 -478.60,-105.16 -475.28,-103.99 -470.35,-103.05"/>
        <lane id=":J66_0_9" index="9" speed="13.89" length="10.05" shape="-487.37,-108.38 -483.31,-104.50 -480.09,-102.25 -476.39,-100.94 -470.87,-99.89"/>
    </edge>
    <edge id=":J67_0" function="internal">
        <lane id=":J67_0_0" index="0" speed="4.43" length="10.19" shape="-449.02,-125.45 -448.72,-125.40 -448.51,-125.41 -448.31,-125.47 -448.04,-125.59"/>
        <lane id=":J67_0_1" index="1" speed="7.09" length="10.19" shape="-449.54,-122.29 -448.65,-122.16 -448.02,-122.17 -447.42,-122.35 -446.61,-122.73"/>
        <lane id=":J67_0_2" index="2" speed="8.99" length="10.19" shape="-450.07,-119.13 -448.59,-118.92 -447.54,-118.93 -446.53,-119.23 -445.18,-119.87"/>
        <lane id=":J67_0_3" index="3" speed="10.55" length="10.19" shape="-450.59,-115.98 -448.52,-115.68 -447.05,-115.70 -445.64,-116.11 -443.74,-117.01"/>
        <lane id=":J67_0_4" index="4" speed="11.91" length="10.19" shape="-451.12,-112.82 -448.45,-112.44 -446.56,-112.46 -444.75,-113.00 -442.31,-114.15"/>
        <lane id=":J67_0_5" index="5" speed="13.13" length="10.19" shape="-451.65,-109.66 -448.38,-109.20 -446.08,-109.23 -443.86,-109.88 -440.88,-111.28"/>
        <lane id=":J67_0_6" index="6" speed="13.89" length="10.19" shape="-452.17,-106.51 -448.32,-105.96 -445.59,-105.99 -442.97,-106.76 -439.45,-108.42"/>
        <lane id=":J67_0_7" index="7" speed="13.89" length="10.19" shape="-452.70,-103.35 -448.25,-102.72 -445.10,-102.75 -442.08,-103.64 -438.02,-105.56"/>
        <lane id=":J67_0_8" index="8" speed="13.89" length="10.19" shape="-453.23,-100.20 -448.18,-99.47 -444.62,-99.52 -441.20,-100.52 -436.59,-102.70"/>
        <lane id=":J67_0_9" index="9" speed="13.89" length="10.19" shape="-453.75,-97.04 -448.12,-96.23 -444.13,-96.28 -440.31,-97.41 -435.16,-99.83"/>
    </edge>
    <edge id=":J68_0" function="internal">
        <lane id=":J68_0_0" index="0" speed="4.13" length="1.38" shape="-433.01,-133.11 -432.71,-133.30 -432.47,-133.53 -432.29,-133.82 -432.17,-134.15"/>
        <lane id=":J68_0_1" index="1" speed="6.51" length="4.14" shape="-431.58,-130.25 -430.68,-130.81 -429.96,-131.52 -429.43,-132.38 -429.07,-133.38"/>
        <lane id=":J68_0_2" index="2" speed="8.22" length="6.90" shape="-430.15,-127.38 -428.65,-128.33 -427.46,-129.51 -426.56,-130.93 -425.96,-132.60"/>
        <lane id=":J68_0_3" index="3" speed="9.64" length="9.66" shape="-428.72,-124.52 -426.62,-125.84 -424.95,-127.50 -423.69,-129.49 -422.86,-131.82"/>
        <lane id=":J68_0_4" index="4" speed="10.87" length="12.42" shape="-427.29,-121.66 -424.59,-123.36 -422.44,-125.49 -420.83,-128.05 -419.75,-131.05"/>
        <lane id=":J68_0_5" index="5" speed="11.98" length="15.18" shape="-425.85,-118.80 -422.56,-120.87 -419.93,-123.48 -417.96,-126.61 -416.65,-130.27"/>
        <lane id=":J68_0_6" index="6" speed="12.99" length="17.94" shape="-424.42,-115.94 -420.53,-118.39 -417.43,-121.46 -415.10,-125.17 -413.55,-129.49"/>
        <lane id=":J68_0_7" index="7" speed="13.89" length="20.70" shape="-422.99,-113.07 -418.51,-115.90 -414.92,-119.45 -412.23,-123.73 -410.44,-128.72"/>
        <lane id=":J68_0_8" index="8" speed="13.89" length="23.46" shape="-421.56,-110.21 -416.48,-113.42 -412.41,-117.44 -409.36,-122.28 -407.34,-127.94"/>
        <lane id=":J68_0_9" index="9" speed="13.89" length="26.22" shape="-420.13,-107.35 -414.45,-110.93 -409.90,-115.43 -406.50,-120.84 -404.23,-127.17"/>
    </edge>
    <edge id=":J69_0" function="internal">
        <lane id=":J69_0_0" index="0" speed="13.89" length="3.50" shape="-423.24,-169.87 -422.75,-171.79 -422.35,-173.08 -421.81,-174.32 -420.94,-176.10"/>
        <lane id=":J69_0_1" index="1" speed="13.89" length="3.50" shape="-420.14,-169.10 -419.70,-170.81 -419.34,-171.96 -418.86,-173.08 -418.08,-174.66"/>
        <lane id=":J69_0_2" index="2" speed="13.89" length="3.50" shape="-417.03,-168.32 -416.65,-169.83 -416.33,-170.85 -415.90,-171.83 -415.22,-173.23"/>