<?xml version="1.0" encoding="UTF-8"?>

<!-- generated on 2022-04-11 12:32:47 by Eclipse SUMO netedit Version 1.12.0
<configuration xmlns:xsi="http://www.w3.org/2001/XMLSchema-instance" xsi:noNamespaceSchemaLocation="http://sumo.dlr.de/xsd/netconvertConfiguration.xsd">

    <output>
        <output-file value="/home/nando/Dev/SMARTS/baselines/marl_benchmark/scenarios/custom/merge/merge60_lanes1/map.net.xml"/>
    </output>

    <processing>
        <offset.disable-normalization value="true"/>
    </processing>

    <junctions>
        <no-turnarounds value="true"/>
    </junctions>

    <report>
        <aggregate-warnings value="5"/>
    </report>

</configuration>
-->

<net version="1.9" junctionCornerDetail="5" limitTurnSpeed="5.50" xmlns:xsi="http://www.w3.org/2001/XMLSchema-instance" xsi:noNamespaceSchemaLocation="http://sumo.dlr.de/xsd/net_file.xsd">

    <location netOffset="0.00,0.00" convBoundary="0.00,-18.75,62.50,18.75" origBoundary="10000000000.00,10000000000.00,-10000000000.00,-10000000000.00" projParameter="!"/>

    <edge id=":J1_0" function="internal">
        <lane id=":J1_0_0" index="0" speed="11.59" length="6.58" shape="27.68,-4.01 29.32,-2.94 30.48,-2.18 31.74,-1.74 33.64,-1.60"/>
    </edge>
    <edge id=":J1_1" function="internal">
        <lane id=":J1_1_0" index="0" speed="11.42" length="6.39" shape="27.68,0.28 29.30,-0.69 30.49,-1.26 31.76,-1.53 33.64,-1.60"/>
    </edge>

    <edge id="E0" from="J0" to="J1" priority="-1">
        <lane id="E0_0" index="0" speed="16.00" length="33.24" shape="-0.82,17.38 27.68,0.28"/>
    </edge>
    <edge id="E1" from="J2" to="J1" priority="-1">
        <lane id="E1_0" index="0" speed="16.00" length="31.32" shape="0.82,-20.12 27.68,-4.01"/>
    </edge>
    <edge id="E2" from="J1" to="J3" priority="-1">
        <lane id="E2_0" index="0" speed="16.00" length="28.86" shape="33.64,-1.60 62.50,-1.60"/>
    </edge>

    <junction id="J0" type="dead_end" x="0.00" y="18.75" incLanes="" intLanes="" shape="0.00,18.75 -1.65,16.01"/>
    <junction id="J1" type="priority" x="31.25" y="0.00" incLanes="E1_0 E0_0" intLanes=":J1_0_0 :J1_1_0" shape="33.64,0.00 33.64,-3.20 31.60,-3.45 30.92,-3.75 30.28,-4.18 29.52,-4.72 28.50,-5.38 26.85,-2.64 27.43,-2.12 27.50,-1.87 27.43,-1.61 27.21,-1.35 26.85,-1.09 28.50,1.65 30.26,0.61 30.92,0.30 31.62,0.12 32.48,0.03">
        <request index="0" response="00" foes="10" cont="0"/>
        <request index="1" response="01" foes="01" cont="0"/>
    </junction>
    <junction id="J2" type="dead_end" x="0.00" y="-18.75" incLanes="" intLanes="" shape="0.00,-18.75 1.65,-21.49"/>
    <junction id="J3" type="dead_end" x="62.50" y="0.00" incLanes="E2_0" intLanes="" shape="62.50,-3.20 62.50,0.00"/>

    <connection from="E0" to="E2" fromLane="0" toLane="0" via=":J1_1_0" dir="s" state="m"/>
    <connection from="E1" to="E2" fromLane="0" toLane="0" via=":J1_0_0" dir="s" state="M"/>

    <connection from=":J1_0" to="E2" fromLane="0" toLane="0" dir="s" state="M"/>
    <connection from=":J1_1" to="E2" fromLane="0" toLane="0" dir="s" state="M"/>

</net>
