<?xml version="1.0" encoding="UTF-8"?>

<!-- generated on 2022-05-03 13:50:47 by Eclipse SUMO netedit Version 1.12.0
<configuration xmlns:xsi="http://www.w3.org/2001/XMLSchema-instance" xsi:noNamespaceSchemaLocation="http://sumo.dlr.de/xsd/netconvertConfiguration.xsd">

    <output>
        <output-file value="/home/nando/Dev/SMARTS/baselines/marl_benchmark/scenarios/custom/merge/merge65_lanes22/map.net.xml"/>
    </output>

    <processing>
        <offset.disable-normalization value="true"/>
    </processing>

    <junctions>
        <no-turnarounds value="true"/>
    </junctions>

    <report>
        <aggregate-warnings value="5"/>
    </report>

</configuration>
-->

<net version="1.9" junctionCornerDetail="5" limitTurnSpeed="5.50" xmlns:xsi="http://www.w3.org/2001/XMLSchema-instance" xsi:noNamespaceSchemaLocation="http://sumo.dlr.de/xsd/net_file.xsd">

    <location netOffset="0.00,0.00" convBoundary="0.00,-3.12,65.62,9.38" origBoundary="10000000000.00,10000000000.00,-10000000000.00,-10000000000.00" projParameter="!"/>

    <edge id=":J2_0" function="internal">
        <lane id=":J2_0_0" index="0" speed="16.00" length="1.03" shape="23.96,4.57 24.11,4.57 24.22,4.56 24.32,4.54 24.47,4.49"/>
        <lane id=":J2_0_1" index="1" speed="12.11" length="1.03" shape="23.96,7.78 24.42,7.77 24.74,7.74 25.04,7.67 25.48,7.53"/>
    </edge>
    <edge id=":J4_0" function="internal">
        <lane id=":J4_0_0" index="0" speed="12.11" length="1.03" shape="25.00,-7.93 25.46,-7.92 25.77,-7.89 26.08,-7.82 26.52,-7.68"/>
        <lane id=":J4_0_1" index="1" speed="16.00" length="1.03" shape="25.00,-4.72 25.15,-4.72 25.26,-4.71 25.36,-4.69 25.51,-4.64"/>
    </edge>
    <edge id=":J5_0" function="internal">
        <lane id=":J5_0_0" index="0" speed="16.00" length="13.71" shape="33.73,-5.28 37.38,-3.84 39.88,-2.70 42.44,-1.95 46.29,-1.68"/>
        <lane id=":J5_0_1" index="1" speed="16.00" length="13.71" shape="32.71,-2.24 36.66,-0.71 39.37,0.48 42.14,1.25 46.29,1.52"/>
    </edge>
    <edge id=":J5_2" function="internal">
        <lane id=":J5_2_0" index="0" speed="16.00" length="13.61" shape="32.71,1.74 36.65,0.28 39.37,-0.80 42.15,-1.45 46.29,-1.68"/>
        <lane id=":J5_2_1" index="1" speed="16.00" length="13.61" shape="33.73,4.78 37.37,3.41 39.88,2.38 42.45,1.75 46.29,1.52"/>
    </edge>

    <edge id="E0" from="J1" to="J2" priority="-1">
        <lane id="E0_0" index="0" speed="16.00" length="23.96" shape="0.00,4.57 23.96,4.57"/>
        <lane id="E0_1" index="1" speed="16.00" length="23.96" shape="0.00,7.78 23.96,7.78"/>
    </edge>
    <edge id="E1" from="J3" to="J4" priority="-1">
        <lane id="E1_0" index="0" speed="16.00" length="25.00" shape="0.00,-7.93 25.00,-7.93"/>
        <lane id="E1_1" index="1" speed="16.00" length="25.00" shape="0.00,-4.72 25.00,-4.72"/>
    </edge>
    <edge id="E2" from="J2" to="J5" priority="-1">
        <lane id="E2_0" index="0" speed="16.00" length="8.69" shape="24.47,4.49 32.71,1.74"/>
        <lane id="E2_1" index="1" speed="16.00" length="8.69" shape="25.48,7.53 33.73,4.78"/>
    </edge>
    <edge id="E3" from="J4" to="J5" priority="-1">
        <lane id="E3_0" index="0" speed="16.00" length="7.60" shape="26.52,-7.68 33.73,-5.28"/>
        <lane id="E3_1" index="1" speed="16.00" length="7.60" shape="25.51,-4.64 32.71,-2.24"/>
    </edge>
    <edge id="E4" from="J5" to="J6" priority="-1">
        <lane id="E4_0" index="0" speed="16.00" length="19.34" shape="46.29,-1.68 65.62,-1.68"/>
        <lane id="E4_1" index="1" speed="16.00" length="19.34" shape="46.29,1.52 65.62,1.52"/>
    </edge>

    <junction id="J1" type="dead_end" x="0.00" y="9.38" incLanes="" intLanes="" shape="0.00,9.38 0.00,2.97"/>
    <junction id="J2" type="priority" x="25.00" y="9.38" incLanes="E0_0 E0_1" intLanes=":J2_0_0 :J2_0_1" shape="25.99,9.05 23.96,2.98 23.96,9.38 24.73,9.36 24.99,9.33 25.26,9.28 25.57,9.18">
        <request index="0" response="00" foes="00" cont="0"/>
        <request index="1" response="00" foes="00" cont="0"/>
    </junction>
    <junction id="J3" type="dead_end" x="0.00" y="-3.12" incLanes="" intLanes="" shape="0.00,-3.12 0.00,-9.53"/>
    <junction id="J4" type="priority" x="25.00" y="-3.12" incLanes="E1_0 E1_1" intLanes=":J4_0_0 :J4_0_1" shape="25.00,-3.13 27.02,-9.20 26.29,-9.43 26.03,-9.48 25.76,-9.51 25.44,-9.52 25.00,-9.53">
        <request index="0" response="00" foes="00" cont="0"/>
        <request index="1" response="00" foes="00" cont="0"/>
    </junction>
    <junction id="J5" type="priority" x="43.75" y="3.12" incLanes="E3_0 E3_1 E2_0 E2_1" intLanes=":J5_0_0 :J5_0_1 :J5_2_0 :J5_2_1" shape="46.29,3.12 46.29,-3.28 43.63,-3.40 41.70,-3.75 40.14,-4.29 38.61,-5.00 36.76,-5.84 34.23,-6.79 32.21,-0.72 32.84,-0.41 32.92,-0.25 32.84,-0.09 32.60,0.07 32.21,0.23 34.23,6.30 36.75,5.38 38.60,4.60 40.14,3.97 41.71,3.51 43.64,3.22">
        <request index="0" response="0000" foes="1100" cont="0"/>
        <request index="1" response="0000" foes="1100" cont="0"/>
        <request index="2" response="0011" foes="0011" cont="0"/>
        <request index="3" response="0011" foes="0011" cont="0"/>
    </junction>
    <junction id="J6" type="dead_end" x="65.62" y="3.12" incLanes="E4_0 E4_1" intLanes="" shape="65.62,-3.28 65.62,3.12"/>

    <connection from="E0" to="E2" fromLane="0" toLane="0" via=":J2_0_0" dir="s" state="M"/>
    <connection from="E0" to="E2" fromLane="1" toLane="1" via=":J2_0_1" dir="s" state="M"/>
    <connection from="E1" to="E3" fromLane="0" toLane="0" via=":J4_0_0" dir="s" state="M"/>
    <connection from="E1" to="E3" fromLane="1" toLane="1" via=":J4_0_1" dir="s" state="M"/>
    <connection from="E2" to="E4" fromLane="0" toLane="0" via=":J5_2_0" dir="s" state="m"/>
    <connection from="E2" to="E4" fromLane="1" toLane="1" via=":J5_2_1" dir="s" state="m"/>
    <connection from="E3" to="E4" fromLane="0" toLane="0" via=":J5_0_0" dir="s" state="M"/>
    <connection from="E3" to="E4" fromLane="1" toLane="1" via=":J5_0_1" dir="s" state="M"/>

    <connection from=":J2_0" to="E2" fromLane="0" toLane="0" dir="s" state="M"/>
    <connection from=":J2_0" to="E2" fromLane="1" toLane="1" dir="s" state="M"/>
    <connection from=":J4_0" to="E3" fromLane="0" toLane="0" dir="s" state="M"/>
    <connection from=":J4_0" to="E3" fromLane="1" toLane="1" dir="s" state="M"/>
    <connection from=":J5_0" to="E4" fromLane="0" toLane="0" dir="s" state="M"/>
    <connection from=":J5_0" to="E4" fromLane="1" toLane="1" dir="s" state="M"/>
    <connection from=":J5_2" to="E4" fromLane="0" toLane="0" dir="s" state="M"/>
    <connection from=":J5_2" to="E4" fromLane="1" toLane="1" dir="s" state="M"/>

</net>
