<?xml version="1.0" encoding="UTF-8"?>

<!-- generated on 2022-03-26 10:40:48 by Eclipse SUMO netedit Version 1.12.0
<configuration xmlns:xsi="http://www.w3.org/2001/XMLSchema-instance" xsi:noNamespaceSchemaLocation="http://sumo.dlr.de/xsd/netconvertConfiguration.xsd">

    <output>
        <output-file value="/home/nando/Dev/SMARTS/baselines/marl_benchmark/scenarios/custom/merge100_lanes2/map.net.xml"/>
    </output>

    <processing>
        <offset.disable-normalization value="true"/>
    </processing>

    <junctions>
        <no-turnarounds value="true"/>
    </junctions>

    <report>
        <aggregate-warnings value="5"/>
    </report>

</configuration>
-->

<net version="1.9" junctionCornerDetail="5" limitTurnSpeed="5.50" xmlns:xsi="http://www.w3.org/2001/XMLSchema-instance" xsi:noNamespaceSchemaLocation="http://sumo.dlr.de/xsd/net_file.xsd">

    <location netOffset="0.00,0.00" convBoundary="0.00,-6.25,100.00,12.50" origBoundary="10000000000.00,10000000000.00,-10000000000.00,-10000000000.00" projParameter="!"/>

    <edge id=":J1_0" function="internal">
        <lane id=":J1_0_0" index="0" speed="16.00" length="0.10" shape="6.25,7.70 6.25,7.70"/>
        <lane id=":J1_0_1" index="1" speed="16.00" length="0.10" shape="6.25,10.90 6.25,10.90"/>
    </edge>
    <edge id=":J2_0" function="internal">
        <lane id=":J2_0_0" index="0" speed="16.00" length="0.10" shape="25.00,7.70 25.00,7.70"/>
        <lane id=":J2_0_1" index="1" speed="16.00" length="0.10" shape="25.00,10.90 25.00,10.90"/>
    </edge>
    <edge id=":J3_0" function="internal">
        <lane id=":J3_0_0" index="0" speed="16.00" length="1.75" shape="29.48,7.70 29.73,7.70 29.91,7.67 30.08,7.60 30.30,7.47"/>
        <lane id=":J3_0_1" index="1" speed="7.49" length="1.75" shape="29.48,10.90 30.25,10.89 30.78,10.81 31.28,10.60 31.95,10.22"/>
    </edge>
    <edge id=":J4_0" function="internal">
        <lane id=":J4_0_0" index="0" speed="13.77" length="10.24" shape="41.84,-5.49 44.15,-3.91 45.75,-2.70 47.47,-1.94 50.15,-1.68"/>
        <lane id=":J4_0_1" index="1" speed="14.95" length="10.24" shape="40.19,-2.75 42.95,-0.91 44.88,0.43 46.96,1.25 50.15,1.52"/>
    </edge>
    <edge id=":J4_2" function="internal">
        <lane id=":J4_2_0" index="0" speed="14.68" length="9.82" shape="40.19,1.54 42.90,-0.10 44.89,-1.08 47.02,-1.55 50.15,-1.68"/>
        <lane id=":J4_2_1" index="1" speed="13.46" length="9.82" shape="41.84,4.28 44.10,2.90 45.76,2.06 47.53,1.64 50.15,1.52"/>
    </edge>
    <edge id=":J6_0" function="internal">
        <lane id=":J6_0_0" index="0" speed="16.00" length="0.10" shape="6.25,-11.05 6.25,-11.05"/>
        <lane id=":J6_0_1" index="1" speed="16.00" length="0.10" shape="6.25,-7.85 6.25,-7.85"/>
    </edge>
    <edge id=":J7_0" function="internal">
        <lane id=":J7_0_0" index="0" speed="16.00" length="0.10" shape="25.00,-11.05 25.00,-11.05"/>
        <lane id=":J7_0_1" index="1" speed="16.00" length="0.10" shape="25.00,-7.85 25.00,-7.85"/>
    </edge>
    <edge id=":J8_0" function="internal">
        <lane id=":J8_0_0" index="0" speed="7.49" length="1.75" shape="31.25,-11.05 32.02,-11.04 32.55,-10.96 33.05,-10.75 33.72,-10.37"/>
        <lane id=":J8_0_1" index="1" speed="16.00" length="1.75" shape="31.25,-7.85 31.51,-7.85 31.68,-7.82 31.85,-7.75 32.07,-7.62"/>
    </edge>

    <edge id="E0" from="J0" to="J1" priority="-1">
        <lane id="E0_0" index="0" speed="16.00" length="6.25" shape="0.00,7.70 6.25,7.70"/>
        <lane id="E0_1" index="1" speed="16.00" length="6.25" shape="0.00,10.90 6.25,10.90"/>
    </edge>
    <edge id="E1" from="J1" to="J2" priority="-1">
        <lane id="E1_0" index="0" speed="16.00" length="18.75" shape="6.25,7.70 25.00,7.70"/>
        <lane id="E1_1" index="1" speed="16.00" length="18.75" shape="6.25,10.90 25.00,10.90"/>
    </edge>
    <edge id="E2" from="J2" to="J3" priority="-1">
        <lane id="E2_0" index="0" speed="16.00" length="4.48" shape="25.00,7.70 29.48,7.70"/>
        <lane id="E2_1" index="1" speed="16.00" length="4.48" shape="25.00,10.90 29.48,10.90"/>
    </edge>
    <edge id="E3" from="J3" to="J4" priority="-1">
        <lane id="E3_0" index="0" speed="16.00" length="11.54" shape="30.30,7.47 40.19,1.54"/>
        <lane id="E3_1" index="1" speed="16.00" length="11.54" shape="31.95,10.22 41.84,4.28"/>
    </edge>
    <edge id="E4" from="J5" to="J6" priority="-1">
        <lane id="E4_0" index="0" speed="16.00" length="6.25" shape="0.00,-11.05 6.25,-11.05"/>
        <lane id="E4_1" index="1" speed="16.00" length="6.25" shape="0.00,-7.85 6.25,-7.85"/>
    </edge>
    <edge id="E5" from="J6" to="J7" priority="-1">
        <lane id="E5_0" index="0" speed="16.00" length="18.75" shape="6.25,-11.05 25.00,-11.05"/>
        <lane id="E5_1" index="1" speed="16.00" length="18.75" shape="6.25,-7.85 25.00,-7.85"/>
    </edge>
    <edge id="E6" from="J7" to="J8" priority="-1">
        <lane id="E6_0" index="0" speed="16.00" length="6.25" shape="25.00,-11.05 31.25,-11.05"/>
        <lane id="E6_1" index="1" speed="16.00" length="6.25" shape="25.00,-7.85 31.25,-7.85"/>
    </edge>
    <edge id="E7" from="J8" to="J4" priority="-1">
        <lane id="E7_0" index="0" speed="16.00" length="9.47" shape="33.72,-10.37 41.84,-5.49"/>
        <lane id="E7_1" index="1" speed="16.00" length="9.47" shape="32.07,-7.62 40.19,-2.75"/>
    </edge>
    <edge id="E8" from="J4" to="J9" priority="-1">
        <lane id="E8_0" index="0" speed="16.00" length="49.85" shape="50.15,-1.68 100.00,-1.68"/>
        <lane id="E8_1" index="1" speed="16.00" length="49.85" shape="50.15,1.52 100.00,1.52"/>
    </edge>

    <junction id="J0" type="dead_end" x="0.00" y="12.50" incLanes="" intLanes="" shape="0.00,12.50 0.00,6.10"/>
    <junction id="J1" type="priority" x="6.25" y="12.50" incLanes="E0_0 E0_1" intLanes=":J1_0_0 :J1_0_1" shape="6.25,12.50 6.25,6.10 6.25,12.50">
        <request index="0" response="00" foes="00" cont="0"/>
        <request index="1" response="00" foes="00" cont="0"/>
    </junction>
    <junction id="J2" type="priority" x="25.00" y="12.50" incLanes="E1_0 E1_1" intLanes=":J2_0_0 :J2_0_1" shape="25.00,12.50 25.00,6.10 25.00,12.50">
        <request index="0" response="00" foes="00" cont="0"/>
        <request index="1" response="00" foes="00" cont="0"/>
    </junction>
    <junction id="J3" type="priority" x="31.25" y="12.50" incLanes="E2_0 E2_1" intLanes=":J3_0_0 :J3_0_1" shape="32.77,11.59 29.48,6.10 29.48,12.50 30.76,12.46 31.21,12.37 31.64,12.22 32.14,11.96">
        <request index="0" response="00" foes="00" cont="0"/>
        <request index="1" response="00" foes="00" cont="0"/>
    </junction>
    <junction id="J4" type="priority" x="46.88" y="3.12" incLanes="E7_0 E7_1 E3_0 E3_1" intLanes=":J4_0_0 :J4_0_1 :J4_2_0 :J4_2_1" shape="50.15,3.12 50.15,-3.28 47.15,-3.73 46.18,-4.27 45.26,-4.99 44.16,-5.86 42.66,-6.87 39.37,-1.38 39.94,-0.86 40.01,-0.61 39.94,-0.35 39.73,-0.09 39.37,0.16 42.66,5.65 45.23,4.09 46.19,3.63 47.20,3.33 48.46,3.17">
        <request index="0" response="0000" foes="1100" cont="0"/>
        <request index="1" response="0000" foes="1100" cont="0"/>
        <request index="2" response="0011" foes="0011" cont="0"/>
        <request index="3" response="0011" foes="0011" cont="0"/>
    </junction>
    <junction id="J5" type="dead_end" x="0.00" y="-6.25" incLanes="" intLanes="" shape="0.00,-6.25 0.00,-12.65"/>
    <junction id="J6" type="priority" x="6.25" y="-6.25" incLanes="E4_0 E4_1" intLanes=":J6_0_0 :J6_0_1" shape="6.25,-6.25 6.25,-12.65 6.25,-6.25">
        <request index="0" response="00" foes="00" cont="0"/>
        <request index="1" response="00" foes="00" cont="0"/>
    </junction>
    <junction id="J7" type="priority" x="25.00" y="-6.25" incLanes="E5_0 E5_1" intLanes=":J7_0_0 :J7_0_1" shape="25.00,-6.25 25.00,-12.65 25.00,-6.25">
        <request index="0" response="00" foes="00" cont="0"/>
        <request index="1" response="00" foes="00" cont="0"/>
    </junction>
    <junction id="J8" type="priority" x="31.25" y="-6.25" incLanes="E6_0 E6_1" intLanes=":J8_0_0 :J8_0_1" shape="31.25,-6.25 34.54,-11.74 33.42,-12.37 32.99,-12.52 32.54,-12.61 31.99,-12.64 31.25,-12.65">
        <request index="0" response="00" foes="00" cont="0"/>
        <request index="1" response="00" foes="00" cont="0"/>
    </junction>
    <junction id="J9" type="dead_end" x="100.00" y="3.12" incLanes="E8_0 E8_1" intLanes="" shape="100.00,-3.28 100.00,3.12"/>

    <connection from="E0" to="E1" fromLane="0" toLane="0" via=":J1_0_0" dir="s" state="M"/>
    <connection from="E0" to="E1" fromLane="1" toLane="1" via=":J1_0_1" dir="s" state="M"/>
    <connection from="E1" to="E2" fromLane="0" toLane="0" via=":J2_0_0" dir="s" state="M"/>
    <connection from="E1" to="E2" fromLane="1" toLane="1" via=":J2_0_1" dir="s" state="M"/>
    <connection from="E2" to="E3" fromLane="0" toLane="0" via=":J3_0_0" dir="s" state="M"/>
    <connection from="E2" to="E3" fromLane="1" toLane="1" via=":J3_0_1" dir="s" state="M"/>
    <connection from="E3" to="E8" fromLane="0" toLane="0" via=":J4_2_0" dir="s" state="m"/>
    <connection from="E3" to="E8" fromLane="1" toLane="1" via=":J4_2_1" dir="s" state="m"/>
    <connection from="E4" to="E5" fromLane="0" toLane="0" via=":J6_0_0" dir="s" state="M"/>
    <connection from="E4" to="E5" fromLane="1" toLane="1" via=":J6_0_1" dir="s" state="M"/>
    <connection from="E5" to="E6" fromLane="0" toLane="0" via=":J7_0_0" dir="s" state="M"/>
    <connection from="E5" to="E6" fromLane="1" toLane="1" via=":J7_0_1" dir="s" state="M"/>
    <connection from="E6" to="E7" fromLane="0" toLane="0" via=":J8_0_0" dir="s" state="M"/>
    <connection from="E6" to="E7" fromLane="1" toLane="1" via=":J8_0_1" dir="s" state="M"/>
    <connection from="E7" to="E8" fromLane="0" toLane="0" via=":J4_0_0" dir="s" state="M"/>
    <connection from="E7" to="E8" fromLane="1" toLane="1" via=":J4_0_1" dir="s" state="M"/>

    <connection from=":J1_0" to="E1" fromLane="0" toLane="0" dir="s" state="M"/>
    <connection from=":J1_0" to="E1" fromLane="1" toLane="1" dir="s" state="M"/>
    <connection from=":J2_0" to="E2" fromLane="0" toLane="0" dir="s" state="M"/>
    <connection from=":J2_0" to="E2" fromLane="1" toLane="1" dir="s" state="M"/>
    <connection from=":J3_0" to="E3" fromLane="0" toLane="0" dir="s" state="M"/>
    <connection from=":J3_0" to="E3" fromLane="1" toLane="1" dir="s" state="M"/>
    <connection from=":J4_0" to="E8" fromLane="0" toLane="0" dir="s" state="M"/>
    <connection from=":J4_0" to="E8" fromLane="1" toLane="1" dir="s" state="M"/>
    <connection from=":J4_2" to="E8" fromLane="0" toLane="0" dir="s" state="M"/>
    <connection from=":J4_2" to="E8" fromLane="1" toLane="1" dir="s" state="M"/>
    <connection from=":J6_0" to="E5" fromLane="0" toLane="0" dir="s" state="M"/>
    <connection from=":J6_0" to="E5" fromLane="1" toLane="1" dir="s" state="M"/>
    <connection from=":J7_0" to="E6" fromLane="0" toLane="0" dir="s" state="M"/>
    <connection from=":J7_0" to="E6" fromLane="1" toLane="1" dir="s" state="M"/>
    <connection from=":J8_0" to="E7" fromLane="0" toLane="0" dir="s" state="M"/>
    <connection from=":J8_0" to="E7" fromLane="1" toLane="1" dir="s" state="M"/>

</net>
