<?xml version="1.0" encoding="UTF-8"?>

<!-- generated on Thu 02 Jul 2020 09:47:38 PM CST by Eclipse SUMO netedit Version 1.5.0
<configuration xmlns:xsi="http://www.w3.org/2001/XMLSchema-instance" xsi:noNamespaceSchemaLocation="http://sumo.dlr.de/xsd/netconvertConfiguration.xsd">

    <input>
        <sumo-net-file value="/home/ming/Projects/Gitlab/corl_smarts/marl_benchmark/scenarios/bidirectionnal/map.net.xml"/>
    </input>

    <output>
        <output-file value="/home/ming/Projects/Gitlab/corl_smarts/marl_benchmark/scenarios/bidirectionnal/map.net.xml"/>
    </output>

    <processing>
        <geometry.min-radius.fix.railways value="false"/>
        <geometry.max-grade.fix value="false"/>
        <offset.disable-normalization value="true"/>
        <lefthand value="false"/>
    </processing>

    <junctions>
        <no-internal-links value="true"/>
        <no-turnarounds value="true"/>
        <junctions.corner-detail value="5"/>
        <junctions.limit-turn-speed value="5.5"/>
        <rectangular-lane-cut value="false"/>
    </junctions>

    <pedestrian>
        <walkingareas value="false"/>
    </pedestrian>

    <report>
        <aggregate-warnings value="5"/>
    </report>

</configuration>
-->

<net version="1.3" junctionCornerDetail="5" limitTurnSpeed="5.50" xmlns:xsi="http://www.w3.org/2001/XMLSchema-instance" xsi:noNamespaceSchemaLocation="http://sumo.dlr.de/xsd/net_file.xsd">

    <location netOffset="0.00,0.00" convBoundary="-19.61,47.37,122.65,47.87" origBoundary="-10000000000.00,-10000000000.00,10000000000.00,10000000000.00" projParameter="!"/>

    <edge id="gneE1" from="gneJ2" to="gneJ3" priority="-1">
        <lane id="gneE1_0" index="0" disallow="pedestrian tram rail_urban rail rail_electric rail_fast ship" speed="24.00" length="90.00" shape="5.00,50.00 95.00,50.00"/>
    </edge>
    <edge id="gneE2" from="gneJ2" to="gneJ3" priority="-1">
        <lane id="gneE2_0" index="0" disallow="pedestrian tram rail_urban rail rail_electric rail_fast ship" speed="24.00" length="90.00" shape="5.00,47.00 95.00,47.00"/>
    </edge>
    <edge id="gneE3" from="gneJ3" to="gneJ4" priority="-1">
        <lane id="gneE3_0" index="0" disallow="pedestrian tram rail_urban rail rail_electric rail_fast ship" speed="24.00" length="50.00" shape="100.00,48.50 150.00,48.50"/>
    </edge>

    <junction id="gneJ2" type="priority" x="5.00" y="50.00" incLanes="" intLanes="" shape="5.00,51.50 5.00,45.50 4.00,45.50 4.00,51.50">
        <request index="0" response="00" foes="00"/>
        <request index="1" response="00" foes="00"/>
    </junction>
    <junction id="gneJ3" type="priority" x="95.00" y="50.00" incLanes="gneE1_0 gneE2_0" intLanes="" shape="100.00,50.00 100.00,47.00 95.00,45.50 95.00,51.50">
        <request index="0" response="00" foes="00"/>
        <request index="1" response="00" foes="00"/>
    </junction>
    <junction id="gneJ4" type="priority" x="150.00" y="50.00" incLanes="gneE3_0" intLanes="" shape="151.00,50.00 151.00,47.00 150.00,47.00 150.00,50.00">
        <request index="0" response="00" foes="00"/>
        <request index="1" response="00" foes="00"/>
    </junction>
    
    <connection from="gneE1" to="gneE3" fromLane="0" toLane="0" dir="s" state="M"/>
    <connection from="gneE2" to="gneE3" fromLane="0" toLane="0" dir="s" state="M"/>
    


</net>
