<?xml version="1.0" encoding="UTF-8"?>

<!-- generated on 2022-03-31 10:58:59 by Eclipse SUMO netedit Version 1.12.0
<configuration xmlns:xsi="http://www.w3.org/2001/XMLSchema-instance" xsi:noNamespaceSchemaLocation="http://sumo.dlr.de/xsd/netconvertConfiguration.xsd">

    <output>
        <output-file value="/home/nando/Dev/SMARTS/baselines/marl_benchmark/scenarios/custom/merge/map.net.xml"/>
    </output>

    <processing>
        <offset.disable-normalization value="true"/>
    </processing>

    <junctions>
        <no-turnarounds value="true"/>
    </junctions>

    <report>
        <aggregate-warnings value="5"/>
    </report>

</configuration>
-->

<net version="1.9" junctionCornerDetail="5" limitTurnSpeed="5.50" xmlns:xsi="http://www.w3.org/2001/XMLSchema-instance" xsi:noNamespaceSchemaLocation="http://sumo.dlr.de/xsd/net_file.xsd">

    <location netOffset="0.00,0.00" convBoundary="0.00,-18.75,62.50,18.75" origBoundary="10000000000.00,10000000000.00,-10000000000.00,-10000000000.00" projParameter="!"/>

    <edge id=":J5_0" function="internal">
        <lane id=":J5_0_0" index="0" speed="13.28" length="9.57" shape="26.78,-8.28,6.48 28.93,-6.82,6.49 30.42,-5.72,6.49 32.03,-5.04,6.50 34.52,-4.80,6.50"/>
        <lane id=":J5_0_1" index="1" speed="14.50" length="9.57" shape="25.13,-5.54,6.48 27.72,-3.82,6.49 29.55,-2.59,6.49 31.52,-1.85,6.50 34.52,-1.60,6.50"/>
    </edge>
    <edge id=":J5_2" function="internal">
        <lane id=":J5_2_0" index="0" speed="10.37" length="1.52" shape="25.66,-1.20,6.39 26.84,-2.17,6.41"/>
        <lane id=":J5_2_1" index="1" speed="9.00" length="2.28" shape="27.93,1.06,6.40 29.34,-0.10,6.43 29.74,-0.32,6.43"/>
    </edge>
    <edge id=":J5_4" function="internal">
        <lane id=":J5_4_0" index="0" speed="10.37" length="8.29" shape="26.84,-2.17,6.41 27.57,-2.78,6.42 29.68,-3.90,6.45 32.00,-4.58,6.47 34.52,-4.80,6.50"/>
    </edge>
    <edge id=":J5_5" function="internal">
        <lane id=":J5_5_0" index="0" speed="9.00" length="5.01" shape="29.74,-0.32,6.43 30.91,-0.93,6.45 32.63,-1.43,6.48 34.52,-1.60,6.50"/>
    </edge>

    <edge id="E2" from="J4" to="J5" priority="-1" shape="0.00,18.75 6.25,12.50,-0.54 14.15,9.87,5.84 25.00,6.25,6.27 31.25,0.00,6.48">
        <lane id="E2_0" index="0" speed="16.00" length="36.39" shape="-3.39,15.36 3.66,8.30,-0.54 12.64,5.31,5.84 22.41,2.05,6.27 25.66,-1.20,6.39"/>
        <lane id="E2_1" index="1" speed="16.00" length="36.39" shape="-1.13,17.62,0.00 5.39,11.10,-0.54 13.65,8.35,5.84 24.14,4.85,6.27 27.93,1.06,6.40"/>
    </edge>
    <edge id="E3" from="J6" to="J5" priority="-1">
        <lane id="E3_0" index="0" speed="16.00" length="44.51" shape="2.47,-22.87,-27.84 26.78,-8.28,6.48"/>
        <lane id="E3_1" index="1" speed="16.00" length="44.51" shape="0.82,-20.12,-27.84 25.13,-5.54,6.48"/>
    </edge>
    <edge id="E4" from="J5" to="J7" priority="-1" shape="31.25,0.00,6.48 46.88,0.00,6.59 50.00,0.00,3.77 62.50,0.00,-7.50">
        <lane id="E4_0" index="0" speed="16.00" length="33.39" shape="34.52,-4.80,6.50 46.88,-4.80,6.59 50.00,-4.80,3.77 62.50,-4.80,-7.50"/>
        <lane id="E4_1" index="1" speed="16.00" length="33.39" shape="34.52,-1.60,6.50 46.88,-1.60,6.59 50.00,-1.60,3.77 62.50,-1.60,-7.50"/>
    </edge>

    <junction id="J4" type="dead_end" x="0.00" y="18.75" incLanes="" intLanes="" shape="0.00,18.75 -4.53,14.22"/>
    <junction id="J5" type="priority" x="31.25" y="0.00" z="6.48" incLanes="E3_0 E3_1 E2_0 E2_1" intLanes=":J5_0_0 :J5_0_1 :J5_4_0 :J5_5_0" shape="34.52,0.00,6.48 34.52,-6.40,6.48 31.76,-6.81,6.48 30.86,-7.29,6.48 30.00,-7.94,6.48 28.99,-8.73,6.48 27.60,-9.65,6.48 24.31,-4.17,6.48 24.90,-3.62,6.48 25.01,-3.32,6.48 24.98,-3.01,6.48 24.82,-2.68,6.48 24.53,-2.33,6.48 29.06,2.19,6.48 30.64,0.97,6.48 31.52,0.55,6.48 32.46,0.24,6.48 33.46,0.06,6.48">
        <request index="0" response="0000" foes="1100" cont="0"/>
        <request index="1" response="0000" foes="1100" cont="0"/>
        <request index="2" response="0011" foes="0011" cont="1"/>
        <request index="3" response="0011" foes="0011" cont="1"/>
    </junction>
    <junction id="J6" type="dead_end" x="0.00" y="-18.75" z="-27.84" incLanes="" intLanes="" shape="0.00,-18.75,-27.84 3.29,-24.24,-27.84"/>
    <junction id="J7" type="dead_end" x="62.50" y="0.00" z="-7.50" incLanes="E4_0 E4_1" intLanes="" shape="62.50,-6.40,-7.50 62.50,0.00,-7.50"/>

    <junction id=":J5_4_0" type="internal" x="26.84" y="-2.17" z="6.41" incLanes=":J5_2_0 E3_0 E3_1" intLanes=":J5_0_0 :J5_0_1"/>
    <junction id=":J5_5_0" type="internal" x="29.74" y="-0.32" z="6.43" incLanes=":J5_2_1 E3_0 E3_1" intLanes=":J5_0_0 :J5_0_1"/>

    <connection from="E2" to="E4" fromLane="0" toLane="0" via=":J5_2_0" dir="l" state="m"/>
    <connection from="E2" to="E4" fromLane="1" toLane="1" via=":J5_2_1" dir="l" state="m"/>
    <connection from="E3" to="E4" fromLane="0" toLane="0" via=":J5_0_0" dir="s" state="M"/>
    <connection from="E3" to="E4" fromLane="1" toLane="1" via=":J5_0_1" dir="s" state="M"/>

    <connection from=":J5_0" to="E4" fromLane="0" toLane="0" dir="s" state="M"/>
    <connection from=":J5_0" to="E4" fromLane="1" toLane="1" dir="s" state="M"/>
    <connection from=":J5_2" to="E4" fromLane="0" toLane="0" via=":J5_4_0" dir="l" state="m"/>
    <connection from=":J5_4" to="E4" fromLane="0" toLane="0" dir="l" state="M"/>
    <connection from=":J5_2" to="E4" fromLane="1" toLane="1" via=":J5_5_0" dir="l" state="m"/>
    <connection from=":J5_5" to="E4" fromLane="0" toLane="1" dir="l" state="M"/>

</net>
