<nodes>
	<node id="1" x="0.0" y="0.0" type="priority"/>
	<node id="2" x="1000.0" y="0.0" type="priority"/>
</nodes>

