<?xml version="1.0" encoding="UTF-8"?>

<!-- generated on 2022-04-11 12:38:05 by Eclipse SUMO netedit Version 1.12.0
<configuration xmlns:xsi="http://www.w3.org/2001/XMLSchema-instance" xsi:noNamespaceSchemaLocation="http://sumo.dlr.de/xsd/netconvertConfiguration.xsd">

    <output>
        <output-file value="/home/nando/Dev/SMARTS/baselines/marl_benchmark/scenarios/custom/merge/merge40_lanes1/map.net.xml"/>
    </output>

    <processing>
        <offset.disable-normalization value="true"/>
    </processing>

    <junctions>
        <no-turnarounds value="true"/>
    </junctions>

    <report>
        <aggregate-warnings value="5"/>
    </report>

</configuration>
-->

<net version="1.9" junctionCornerDetail="5" limitTurnSpeed="5.50" xmlns:xsi="http://www.w3.org/2001/XMLSchema-instance" xsi:noNamespaceSchemaLocation="http://sumo.dlr.de/xsd/net_file.xsd">

    <location netOffset="0.00,0.00" convBoundary="-3.12,-12.50,40.62,10.94" origBoundary="10000000000.00,10000000000.00,-10000000000.00,-10000000000.00" projParameter="!"/>

    <edge id=":J5_0" function="internal">
        <lane id=":J5_0_0" index="0" speed="9.85" length="5.49" shape="12.41,-4.07 13.70,-3.06 14.60,-2.28 15.58,-1.78 17.13,-1.60"/>
    </edge>
    <edge id=":J5_1" function="internal">
        <lane id=":J5_1_0" index="0" speed="9.27" length="5.17" shape="12.46,0.27 13.70,-0.63 14.62,-1.21 15.62,-1.51 17.13,-1.60"/>
    </edge>

    <edge id="E2" from="J4" to="J5" priority="-1">
        <lane id="E2_0" index="0" speed="16.00" length="16.32" shape="-0.92,9.63 12.46,0.27"/>
    </edge>
    <edge id="E3" from="J6" to="J5" priority="-1">
        <lane id="E3_0" index="0" speed="16.00" length="17.60" shape="-2.24,-13.83 12.41,-4.07"/>
    </edge>
    <edge id="E4" from="J5" to="J7" priority="-1">
        <lane id="E4_0" index="0" speed="13.89" length="23.50" shape="17.13,-1.60 40.62,-1.60"/>
    </edge>

    <junction id="J4" type="dead_end" x="0.00" y="10.94" incLanes="" intLanes="" shape="0.00,10.94 -1.84,8.32"/>
    <junction id="J5" type="priority" x="15.62" y="0.00" incLanes="E3_0 E2_0" intLanes=":J5_0_0 :J5_1_0" shape="17.13,0.00 17.13,-3.20 15.56,-3.50 15.07,-3.84 14.61,-4.29 14.06,-4.81 13.29,-5.40 11.52,-2.74 12.08,-2.18 12.15,-1.90 12.08,-1.62 11.88,-1.33 11.54,-1.05 13.37,1.58 14.63,0.65 15.11,0.35 15.62,0.15 16.26,0.04">
        <request index="0" response="00" foes="10" cont="0"/>
        <request index="1" response="01" foes="01" cont="0"/>
    </junction>
    <junction id="J6" type="dead_end" x="-3.12" y="-12.50" incLanes="" intLanes="" shape="-3.12,-12.50 -1.35,-15.16"/>
    <junction id="J7" type="dead_end" x="40.62" y="0.00" incLanes="E4_0" intLanes="" shape="40.62,-3.20 40.62,0.00"/>

    <connection from="E2" to="E4" fromLane="0" toLane="0" via=":J5_1_0" dir="s" state="m"/>
    <connection from="E3" to="E4" fromLane="0" toLane="0" via=":J5_0_0" dir="s" state="M"/>

    <connection from=":J5_0" to="E4" fromLane="0" toLane="0" dir="s" state="M"/>
    <connection from=":J5_1" to="E4" fromLane="0" toLane="0" dir="s" state="M"/>

</net>
