<?xml version="1.0" encoding="UTF-8"?>

<!-- generated on 2022-03-26 10:47:02 by Eclipse SUMO netedit Version 1.12.0
<configuration xmlns:xsi="http://www.w3.org/2001/XMLSchema-instance" xsi:noNamespaceSchemaLocation="http://sumo.dlr.de/xsd/netconvertConfiguration.xsd">

    <input>
        <sumo-net-file value="/home/nando/Dev/SMARTS/baselines/marl_benchmark/scenarios/custom/merge100_lanes2_2/map.net.xml"/>
    </input>

    <output>
        <output-file value="/home/nando/Dev/SMARTS/baselines/marl_benchmark/scenarios/custom/merge100_lanes2_2/map.net.xml"/>
    </output>

    <processing>
        <geometry.min-radius.fix.railways value="false"/>
        <geometry.max-grade.fix value="false"/>
        <offset.disable-normalization value="true"/>
        <lefthand value="false"/>
    </processing>

    <junctions>
        <no-turnarounds value="true"/>
        <junctions.corner-detail value="5"/>
        <junctions.limit-turn-speed value="5.5"/>
        <rectangular-lane-cut value="false"/>
    </junctions>

    <pedestrian>
        <walkingareas value="false"/>
    </pedestrian>

    <report>
        <aggregate-warnings value="5"/>
    </report>

</configuration>
-->

<net version="1.9" junctionCornerDetail="5" limitTurnSpeed="5.50" xmlns:xsi="http://www.w3.org/2001/XMLSchema-instance" xsi:noNamespaceSchemaLocation="http://sumo.dlr.de/xsd/net_file.xsd">

    <location netOffset="0.00,0.00" convBoundary="0.00,-6.25,100.00,12.50" origBoundary="-10000000000.00,-10000000000.00,10000000000.00,10000000000.00" projParameter="!"/>

    <edge id=":J0_0" function="internal">
        <lane id=":J0_0_0" index="0" speed="13.26" length="11.10" shape="44.67,-3.07 47.08,-1.21 48.74,0.21 50.56,1.13 53.44,1.45"/>
        <lane id=":J0_0_1" index="1" speed="14.40" length="11.10" shape="42.89,-0.41 45.77,1.75 47.80,3.34 50.01,4.32 53.44,4.65"/>
    </edge>
    <edge id=":J0_2" function="internal">
        <lane id=":J0_2_0" index="0" speed="16.00" length="10.91" shape="42.34,3.74 45.54,2.63 47.78,1.93 50.07,1.56 53.44,1.45"/>
        <lane id=":J0_2_1" index="1" speed="16.00" length="10.91" shape="43.35,6.78 46.26,5.76 48.29,5.10 50.37,4.75 53.44,4.65"/>
    </edge>
    <edge id=":J2_0" function="internal">
        <lane id=":J2_0_0" index="0" speed="7.25" length="1.90" shape="31.25,-11.05 32.09,-11.03 32.67,-10.94 33.20,-10.70 33.91,-10.24"/>
        <lane id=":J2_0_1" index="1" speed="16.00" length="1.90" shape="31.25,-7.85 31.53,-7.84 31.72,-7.81 31.90,-7.73 32.14,-7.58"/>
    </edge>
    <edge id=":J4_0" function="internal">
        <lane id=":J4_0_0" index="0" speed="16.00" length="0.10" shape="6.25,-11.05 6.25,-11.05"/>
        <lane id=":J4_0_1" index="1" speed="16.00" length="0.10" shape="6.25,-7.85 6.25,-7.85"/>
    </edge>
    <edge id=":J5_0" function="internal">
        <lane id=":J5_0_0" index="0" speed="16.00" length="0.10" shape="25.00,-11.05 25.00,-11.05"/>
        <lane id=":J5_0_1" index="1" speed="16.00" length="0.10" shape="25.00,-7.85 25.00,-7.85"/>
    </edge>
    <edge id=":J6_0" function="internal">
        <lane id=":J6_0_0" index="0" speed="16.00" length="1.03" shape="30.21,7.70 30.36,7.70 30.47,7.69 30.57,7.66 30.72,7.62"/>
        <lane id=":J6_0_1" index="1" speed="12.11" length="1.03" shape="30.21,10.90 30.67,10.90 30.99,10.87 31.29,10.79 31.73,10.65"/>
    </edge>
    <edge id=":J8_0" function="internal">
        <lane id=":J8_0_0" index="0" speed="16.00" length="0.10" shape="6.25,7.70 6.25,7.70"/>
        <lane id=":J8_0_1" index="1" speed="16.00" length="0.10" shape="6.25,10.90 6.25,10.90"/>
    </edge>
    <edge id=":J9_0" function="internal">
        <lane id=":J9_0_0" index="0" speed="16.00" length="0.10" shape="25.00,7.70 25.00,7.70"/>
        <lane id=":J9_0_1" index="1" speed="16.00" length="0.10" shape="25.00,10.90 25.00,10.90"/>
    </edge>

    <edge id="E0" from="J0" to="J1" priority="-1">
        <lane id="E0_0" index="0" speed="16.00" length="46.56" shape="53.44,1.45 100.00,1.45"/>
        <lane id="E0_1" index="1" speed="16.00" length="46.56" shape="53.44,4.65 100.00,4.65"/>
    </edge>
    <edge id="E1" from="J2" to="J0" priority="-1">
        <lane id="E1_0" index="0" speed="16.00" length="12.93" shape="33.91,-10.24 44.67,-3.07"/>
        <lane id="E1_1" index="1" speed="16.00" length="12.93" shape="32.14,-7.58 42.89,-0.41"/>
    </edge>
    <edge id="E2" from="J3" to="J4" priority="-1">
        <lane id="E2_0" index="0" speed="16.00" length="6.25" shape="0.00,-11.05 6.25,-11.05"/>
        <lane id="E2_1" index="1" speed="16.00" length="6.25" shape="0.00,-7.85 6.25,-7.85"/>
    </edge>
    <edge id="E3" from="J4" to="J5" priority="-1">
        <lane id="E3_0" index="0" speed="16.00" length="18.75" shape="6.25,-11.05 25.00,-11.05"/>
        <lane id="E3_1" index="1" speed="16.00" length="18.75" shape="6.25,-7.85 25.00,-7.85"/>
    </edge>
    <edge id="E4" from="J5" to="J2" priority="-1">
        <lane id="E4_0" index="0" speed="16.00" length="6.25" shape="25.00,-11.05 31.25,-11.05"/>
        <lane id="E4_1" index="1" speed="16.00" length="6.25" shape="25.00,-7.85 31.25,-7.85"/>
    </edge>
    <edge id="E5" from="J6" to="J0" priority="-1">
        <lane id="E5_0" index="0" speed="16.00" length="12.25" shape="30.72,7.62 42.34,3.74"/>
        <lane id="E5_1" index="1" speed="16.00" length="12.25" shape="31.73,10.65 43.35,6.78"/>
    </edge>
    <edge id="E6" from="J7" to="J8" priority="-1">
        <lane id="E6_0" index="0" speed="16.00" length="6.25" shape="0.00,7.70 6.25,7.70"/>
        <lane id="E6_1" index="1" speed="16.00" length="6.25" shape="0.00,10.90 6.25,10.90"/>
    </edge>
    <edge id="E7" from="J8" to="J9" priority="-1">
        <lane id="E7_0" index="0" speed="16.00" length="18.75" shape="6.25,7.70 25.00,7.70"/>
        <lane id="E7_1" index="1" speed="16.00" length="18.75" shape="6.25,10.90 25.00,10.90"/>
    </edge>
    <edge id="E8" from="J9" to="J6" priority="-1">
        <lane id="E8_0" index="0" speed="16.00" length="5.21" shape="25.00,7.70 30.21,7.70"/>
        <lane id="E8_1" index="1" speed="16.00" length="5.21" shape="25.00,10.90 30.21,10.90"/>
    </edge>

    <junction id="J0" type="priority" x="50.00" y="6.25" incLanes="E1_0 E1_1 E5_0 E5_1" intLanes=":J0_0_0 :J0_0_1 :J0_2_0 :J0_2_1" shape="53.44,6.25 53.44,-0.15 50.23,-0.70 49.21,-1.35 48.26,-2.20 47.12,-3.23 45.56,-4.40 42.01,0.92 42.54,1.44 42.59,1.66 42.48,1.87 42.23,2.06 41.83,2.23 43.85,8.30 45.84,7.61 47.32,7.08 48.55,6.69 49.81,6.44 51.35,6.29">
        <request index="0" response="0000" foes="1100" cont="0"/>
        <request index="1" response="0000" foes="1100" cont="0"/>
        <request index="2" response="0011" foes="0011" cont="0"/>
        <request index="3" response="0011" foes="0011" cont="0"/>
    </junction>
    <junction id="J1" type="dead_end" x="100.00" y="6.25" incLanes="E0_0 E0_1" intLanes="" shape="100.00,-0.15 100.00,6.25"/>
    <junction id="J2" type="priority" x="31.25" y="-6.25" incLanes="E4_0 E4_1" intLanes=":J2_0_0 :J2_0_1" shape="31.25,-6.25 34.80,-11.58 33.61,-12.31 33.14,-12.50 32.65,-12.60 32.05,-12.64 31.25,-12.65">
        <request index="0" response="00" foes="00" cont="0"/>
        <request index="1" response="00" foes="00" cont="0"/>
    </junction>
    <junction id="J3" type="dead_end" x="0.00" y="-6.25" incLanes="" intLanes="" shape="0.00,-6.25 0.00,-12.65"/>
    <junction id="J4" type="priority" x="6.25" y="-6.25" incLanes="E2_0 E2_1" intLanes=":J4_0_0 :J4_0_1" shape="6.25,-6.25 6.25,-12.65 6.25,-6.25">
        <request index="0" response="00" foes="00" cont="0"/>
        <request index="1" response="00" foes="00" cont="0"/>
    </junction>
    <junction id="J5" type="priority" x="25.00" y="-6.25" incLanes="E3_0 E3_1" intLanes=":J5_0_0 :J5_0_1" shape="25.00,-6.25 25.00,-12.65 25.00,-6.25">
        <request index="0" response="00" foes="00" cont="0"/>
        <request index="1" response="00" foes="00" cont="0"/>
    </junction>
    <junction id="J6" type="priority" x="31.25" y="12.50" incLanes="E8_0 E8_1" intLanes=":J6_0_0 :J6_0_1" shape="32.24,12.17 30.21,6.10 30.21,12.50 30.98,12.49 31.24,12.46 31.51,12.40 31.82,12.31">
        <request index="0" response="00" foes="00" cont="0"/>
        <request index="1" response="00" foes="00" cont="0"/>
    </junction>
    <junction id="J7" type="dead_end" x="0.00" y="12.50" incLanes="" intLanes="" shape="0.00,12.50 0.00,6.10"/>
    <junction id="J8" type="priority" x="6.25" y="12.50" incLanes="E6_0 E6_1" intLanes=":J8_0_0 :J8_0_1" shape="6.25,12.50 6.25,6.10 6.25,12.50">
        <request index="0" response="00" foes="00" cont="0"/>
        <request index="1" response="00" foes="00" cont="0"/>
    </junction>
    <junction id="J9" type="priority" x="25.00" y="12.50" incLanes="E7_0 E7_1" intLanes=":J9_0_0 :J9_0_1" shape="25.00,12.50 25.00,6.10 25.00,12.50">
        <request index="0" response="00" foes="00" cont="0"/>
        <request index="1" response="00" foes="00" cont="0"/>
    </junction>

    <connection from="E1" to="E0" fromLane="0" toLane="0" via=":J0_0_0" dir="s" state="M"/>
    <connection from="E1" to="E0" fromLane="1" toLane="1" via=":J0_0_1" dir="s" state="M"/>
    <connection from="E2" to="E3" fromLane="0" toLane="0" via=":J4_0_0" dir="s" state="M"/>
    <connection from="E2" to="E3" fromLane="1" toLane="1" via=":J4_0_1" dir="s" state="M"/>
    <connection from="E3" to="E4" fromLane="0" toLane="0" via=":J5_0_0" dir="s" state="M"/>
    <connection from="E3" to="E4" fromLane="1" toLane="1" via=":J5_0_1" dir="s" state="M"/>
    <connection from="E4" to="E1" fromLane="0" toLane="0" via=":J2_0_0" dir="s" state="M"/>
    <connection from="E4" to="E1" fromLane="1" toLane="1" via=":J2_0_1" dir="s" state="M"/>
    <connection from="E5" to="E0" fromLane="0" toLane="0" via=":J0_2_0" dir="s" state="m"/>
    <connection from="E5" to="E0" fromLane="1" toLane="1" via=":J0_2_1" dir="s" state="m"/>
    <connection from="E6" to="E7" fromLane="0" toLane="0" via=":J8_0_0" dir="s" state="M"/>
    <connection from="E6" to="E7" fromLane="1" toLane="1" via=":J8_0_1" dir="s" state="M"/>
    <connection from="E7" to="E8" fromLane="0" toLane="0" via=":J9_0_0" dir="s" state="M"/>
    <connection from="E7" to="E8" fromLane="1" toLane="1" via=":J9_0_1" dir="s" state="M"/>
    <connection from="E8" to="E5" fromLane="0" toLane="0" via=":J6_0_0" dir="s" state="M"/>
    <connection from="E8" to="E5" fromLane="1" toLane="1" via=":J6_0_1" dir="s" state="M"/>

    <connection from=":J0_0" to="E0" fromLane="0" toLane="0" dir="s" state="M"/>
    <connection from=":J0_0" to="E0" fromLane="1" toLane="1" dir="s" state="M"/>
    <connection from=":J0_2" to="E0" fromLane="0" toLane="0" dir="s" state="M"/>
    <connection from=":J0_2" to="E0" fromLane="1" toLane="1" dir="s" state="M"/>
    <connection from=":J2_0" to="E1" fromLane="0" toLane="0" dir="s" state="M"/>
    <connection from=":J2_0" to="E1" fromLane="1" toLane="1" dir="s" state="M"/>
    <connection from=":J4_0" to="E3" fromLane="0" toLane="0" dir="s" state="M"/>
    <connection from=":J4_0" to="E3" fromLane="1" toLane="1" dir="s" state="M"/>
    <connection from=":J5_0" to="E4" fromLane="0" toLane="0" dir="s" state="M"/>
    <connection from=":J5_0" to="E4" fromLane="1" toLane="1" dir="s" state="M"/>
    <connection from=":J6_0" to="E5" fromLane="0" toLane="0" dir="s" state="M"/>
    <connection from=":J6_0" to="E5" fromLane="1" toLane="1" dir="s" state="M"/>
    <connection from=":J8_0" to="E7" fromLane="0" toLane="0" dir="s" state="M"/>
    <connection from=":J8_0" to="E7" fromLane="1" toLane="1" dir="s" state="M"/>
    <connection from=":J9_0" to="E8" fromLane="0" toLane="0" dir="s" state="M"/>
    <connection from=":J9_0" to="E8" fromLane="1" toLane="1" dir="s" state="M"/>

</net>
