<?xml version="1.0" encoding="UTF-8"?>

<!-- generated on 2022-03-21 14:29:46 by Eclipse SUMO netedit Version 1.12.0
<configuration xmlns:xsi="http://www.w3.org/2001/XMLSchema-instance" xsi:noNamespaceSchemaLocation="http://sumo.dlr.de/xsd/netconvertConfiguration.xsd">

    <output>
        <output-file value="/home/nando/Dev/SMARTS/baselines/marl_benchmark/scenarios/custom/intersection/test5/map.net.xml"/>
    </output>

    <processing>
        <offset.disable-normalization value="true"/>
    </processing>

    <junctions>
        <no-turnarounds value="true"/>
    </junctions>

    <report>
        <aggregate-warnings value="5"/>
    </report>

</configuration>
-->

<net version="1.9" junctionCornerDetail="5" limitTurnSpeed="5.50" xmlns:xsi="http://www.w3.org/2001/XMLSchema-instance" xsi:noNamespaceSchemaLocation="http://sumo.dlr.de/xsd/net_file.xsd">

    <location netOffset="0.00,0.00" convBoundary="0.00,-37.50,75.00,37.50" origBoundary="10000000000.00,10000000000.00,-10000000000.00,-10000000000.00" projParameter="!"/>

    <edge id=":J1_0" function="internal">
        <lane id=":J1_0_0" index="0" speed="13.89" length="0.10" shape="6.25,1.60 6.25,1.60"/>
    </edge>
    <edge id=":J1_1" function="internal">
        <lane id=":J1_1_0" index="0" speed="13.89" length="0.10" shape="6.25,-1.60 6.25,-1.60"/>
    </edge>
    <edge id=":J11_0" function="internal">
        <lane id=":J11_0_0" index="0" speed="13.89" length="0.10" shape="35.90,-31.25 35.90,-31.25"/>
    </edge>
    <edge id=":J11_1" function="internal">
        <lane id=":J11_1_0" index="0" speed="13.89" length="0.10" shape="39.10,-31.25 39.10,-31.25"/>
    </edge>
    <edge id=":J12_0" function="internal">
        <lane id=":J12_0_0" index="0" speed="13.89" length="0.10" shape="35.90,-12.50 35.90,-12.50"/>
    </edge>
    <edge id=":J12_1" function="internal">
        <lane id=":J12_1_0" index="0" speed="13.89" length="0.10" shape="39.10,-12.50 39.10,-12.50"/>
    </edge>
    <edge id=":J2_0" function="internal">
        <lane id=":J2_0_0" index="0" speed="13.89" length="0.10" shape="25.00,1.60 25.00,1.60"/>
    </edge>
    <edge id=":J2_1" function="internal">
        <lane id=":J2_1_0" index="0" speed="13.89" length="0.10" shape="25.00,-1.60 25.00,-1.60"/>
    </edge>
    <edge id=":J3_0" function="internal">
        <lane id=":J3_0_0" index="0" speed="6.51" length="9.03" shape="35.90,7.20 35.55,4.75 34.50,3.00 32.75,1.95 30.30,1.60"/>
    </edge>
    <edge id=":J3_1" function="internal">
        <lane id=":J3_1_0" index="0" speed="13.89" length="14.40" shape="35.90,7.20 35.90,-7.20"/>
    </edge>
    <edge id=":J3_2" function="internal">
        <lane id=":J3_2_0" index="0" speed="8.00" length="4.07" shape="35.90,7.20 36.45,3.35 36.54,3.20"/>
    </edge>
    <edge id=":J3_12" function="internal">
        <lane id=":J3_12_0" index="0" speed="8.00" length="10.13" shape="36.54,3.20 38.10,0.60 40.85,-1.05 44.70,-1.60"/>
    </edge>
    <edge id=":J3_3" function="internal">
        <lane id=":J3_3_0" index="0" speed="6.51" length="9.03" shape="44.70,1.60 42.25,1.95 40.50,3.00 39.45,4.75 39.10,7.20"/>
    </edge>
    <edge id=":J3_4" function="internal">
        <lane id=":J3_4_0" index="0" speed="13.89" length="14.40" shape="44.70,1.60 30.30,1.60"/>
    </edge>
    <edge id=":J3_5" function="internal">
        <lane id=":J3_5_0" index="0" speed="8.00" length="14.19" shape="44.70,1.60 40.85,1.05 38.10,-0.60 36.45,-3.35 35.90,-7.20"/>
    </edge>
    <edge id=":J3_6" function="internal">
        <lane id=":J3_6_0" index="0" speed="6.51" length="9.03" shape="39.10,-7.20 39.45,-4.75 40.50,-3.00 42.25,-1.95 44.70,-1.60"/>
    </edge>
    <edge id=":J3_7" function="internal">
        <lane id=":J3_7_0" index="0" speed="13.89" length="14.40" shape="39.10,-7.20 39.10,7.20"/>
    </edge>
    <edge id=":J3_8" function="internal">
        <lane id=":J3_8_0" index="0" speed="8.00" length="4.07" shape="39.10,-7.20 38.55,-3.35 38.46,-3.20"/>
    </edge>
    <edge id=":J3_13" function="internal">
        <lane id=":J3_13_0" index="0" speed="8.00" length="10.13" shape="38.46,-3.20 36.90,-0.60 34.15,1.05 30.30,1.60"/>
    </edge>
    <edge id=":J3_9" function="internal">
        <lane id=":J3_9_0" index="0" speed="6.51" length="9.03" shape="30.30,-1.60 32.75,-1.95 34.50,-3.00 35.55,-4.75 35.90,-7.20"/>
    </edge>
    <edge id=":J3_10" function="internal">
        <lane id=":J3_10_0" index="0" speed="13.89" length="14.40" shape="30.30,-1.60 44.70,-1.60"/>
    </edge>
    <edge id=":J3_11" function="internal">
        <lane id=":J3_11_0" index="0" speed="8.00" length="14.19" shape="30.30,-1.60 34.15,-1.05 36.90,0.60 38.55,3.35 39.10,7.20"/>
    </edge>
    <edge id=":J4_0" function="internal">
        <lane id=":J4_0_0" index="0" speed="13.89" length="0.10" shape="50.00,1.60 50.00,1.60"/>
    </edge>
    <edge id=":J4_1" function="internal">
        <lane id=":J4_1_0" index="0" speed="13.89" length="0.10" shape="50.00,-1.60 50.00,-1.60"/>
    </edge>
    <edge id=":J5_0" function="internal">
        <lane id=":J5_0_0" index="0" speed="13.89" length="0.10" shape="68.75,1.60 68.75,1.60"/>
    </edge>
    <edge id=":J5_1" function="internal">
        <lane id=":J5_1_0" index="0" speed="13.89" length="0.10" shape="68.75,-1.60 68.75,-1.60"/>
    </edge>
    <edge id=":J8_0" function="internal">
        <lane id=":J8_0_0" index="0" speed="13.89" length="0.10" shape="35.90,31.25 35.90,31.25"/>
    </edge>
    <edge id=":J8_1" function="internal">
        <lane id=":J8_1_0" index="0" speed="13.89" length="0.10" shape="39.10,31.25 39.10,31.25"/>
    </edge>
    <edge id=":J9_0" function="internal">
        <lane id=":J9_0_0" index="0" speed="13.89" length="0.10" shape="35.90,12.50 35.90,12.50"/>
    </edge>
    <edge id=":J9_1" function="internal">
        <lane id=":J9_1_0" index="0" speed="13.89" length="0.10" shape="39.10,12.50 39.10,12.50"/>
    </edge>

    <edge id="-E0" from="J1" to="J0" priority="-1">
        <lane id="-E0_0" index="0" speed="13.89" length="6.25" shape="6.25,1.60 0.00,1.60"/>
    </edge>
    <edge id="-E1" from="J2" to="J1" priority="-1">
        <lane id="-E1_0" index="0" speed="13.89" length="18.75" shape="25.00,1.60 6.25,1.60"/>
    </edge>
    <edge id="-E10" from="J12" to="J11" priority="-1">
        <lane id="-E10_0" index="0" speed="13.89" length="18.75" shape="35.90,-12.50 35.90,-31.25"/>
    </edge>
    <edge id="-E11" from="J3" to="J12" priority="-1">
        <lane id="-E11_0" index="0" speed="13.89" length="5.30" shape="35.90,-7.20 35.90,-12.50"/>
    </edge>
    <edge id="-E2" from="J3" to="J2" priority="-1">
        <lane id="-E2_0" index="0" speed="13.89" length="5.30" shape="30.30,1.60 25.00,1.60"/>
    </edge>
    <edge id="-E3" from="J4" to="J3" priority="-1">
        <lane id="-E3_0" index="0" speed="13.89" length="5.30" shape="50.00,1.60 44.70,1.60"/>
    </edge>
    <edge id="-E4" from="J5" to="J4" priority="-1">
        <lane id="-E4_0" index="0" speed="13.89" length="18.75" shape="68.75,1.60 50.00,1.60"/>
    </edge>
    <edge id="-E5" from="J6" to="J5" priority="-1">
        <lane id="-E5_0" index="0" speed="13.89" length="6.25" shape="75.00,1.60 68.75,1.60"/>
    </edge>
    <edge id="-E6" from="J8" to="J7" priority="-1">
        <lane id="-E6_0" index="0" speed="13.89" length="6.25" shape="39.10,31.25 39.10,37.50"/>
    </edge>
    <edge id="-E7" from="J9" to="J8" priority="-1">
        <lane id="-E7_0" index="0" speed="13.89" length="18.75" shape="39.10,12.50 39.10,31.25"/>
    </edge>
    <edge id="-E8" from="J3" to="J9" priority="-1">
        <lane id="-E8_0" index="0" speed="13.89" length="5.30" shape="39.10,7.20 39.10,12.50"/>
    </edge>
    <edge id="-E9" from="J11" to="J10" priority="-1">
        <lane id="-E9_0" index="0" speed="13.89" length="6.25" shape="35.90,-31.25 35.90,-37.50"/>
    </edge>
    <edge id="E0" from="J0" to="J1" priority="-1">
        <lane id="E0_0" index="0" speed="13.89" length="6.25" shape="0.00,-1.60 6.25,-1.60"/>
    </edge>
    <edge id="E1" from="J1" to="J2" priority="-1">
        <lane id="E1_0" index="0" speed="13.89" length="18.75" shape="6.25,-1.60 25.00,-1.60"/>
    </edge>
    <edge id="E10" from="J11" to="J12" priority="-1">
        <lane id="E10_0" index="0" speed="13.89" length="18.75" shape="39.10,-31.25 39.10,-12.50"/>
    </edge>
    <edge id="E11" from="J12" to="J3" priority="-1">
        <lane id="E11_0" index="0" speed="13.89" length="5.30" shape="39.10,-12.50 39.10,-7.20"/>
    </edge>
    <edge id="E2" from="J2" to="J3" priority="-1">
        <lane id="E2_0" index="0" speed="13.89" length="5.30" shape="25.00,-1.60 30.30,-1.60"/>
    </edge>
    <edge id="E3" from="J3" to="J4" priority="-1">
        <lane id="E3_0" index="0" speed="13.89" length="5.30" shape="44.70,-1.60 50.00,-1.60"/>
    </edge>
    <edge id="E4" from="J4" to="J5" priority="-1">
        <lane id="E4_0" index="0" speed="13.89" length="18.75" shape="50.00,-1.60 68.75,-1.60"/>
    </edge>
    <edge id="E5" from="J5" to="J6" priority="-1">
        <lane id="E5_0" index="0" speed="13.89" length="6.25" shape="68.75,-1.60 75.00,-1.60"/>
    </edge>
    <edge id="E6" from="J7" to="J8" priority="-1">
        <lane id="E6_0" index="0" speed="13.89" length="6.25" shape="35.90,37.50 35.90,31.25"/>
    </edge>
    <edge id="E7" from="J8" to="J9" priority="-1">
        <lane id="E7_0" index="0" speed="13.89" length="18.75" shape="35.90,31.25 35.90,12.50"/>
    </edge>
    <edge id="E8" from="J9" to="J3" priority="-1">
        <lane id="E8_0" index="0" speed="13.89" length="5.30" shape="35.90,12.50 35.90,7.20"/>
    </edge>
    <edge id="E9" from="J10" to="J11" priority="-1">
        <lane id="E9_0" index="0" speed="13.89" length="6.25" shape="39.10,-37.50 39.10,-31.25"/>
    </edge>

    <junction id="J0" type="dead_end" x="0.00" y="0.00" incLanes="-E0_0" intLanes="" shape="0.00,0.00 0.00,3.20 0.00,0.00"/>
    <junction id="J1" type="priority" x="6.25" y="0.00" incLanes="-E1_0 E0_0" intLanes=":J1_0_0 :J1_1_0" shape="6.25,3.20 6.25,-3.20 6.25,3.20">
        <request index="0" response="00" foes="00" cont="0"/>
        <request index="1" response="00" foes="00" cont="0"/>
    </junction>
    <junction id="J10" type="dead_end" x="37.50" y="-37.50" incLanes="-E9_0" intLanes="" shape="37.50,-37.50 34.30,-37.50 37.50,-37.50"/>
    <junction id="J11" type="priority" x="37.50" y="-31.25" incLanes="-E10_0 E9_0" intLanes=":J11_0_0 :J11_1_0" shape="34.30,-31.25 40.70,-31.25 34.30,-31.25">
        <request index="0" response="00" foes="00" cont="0"/>
        <request index="1" response="00" foes="00" cont="0"/>
    </junction>
    <junction id="J12" type="priority" x="37.50" y="-12.50" incLanes="-E11_0 E10_0" intLanes=":J12_0_0 :J12_1_0" shape="34.30,-12.50 40.70,-12.50 34.30,-12.50">
        <request index="0" response="00" foes="00" cont="0"/>
        <request index="1" response="00" foes="00" cont="0"/>
    </junction>
    <junction id="J2" type="priority" x="25.00" y="0.00" incLanes="-E2_0 E1_0" intLanes=":J2_0_0 :J2_1_0" shape="25.00,3.20 25.00,-3.20 25.00,3.20">
        <request index="0" response="00" foes="00" cont="0"/>
        <request index="1" response="00" foes="00" cont="0"/>
    </junction>
    <junction id="J3" type="priority" x="37.50" y="0.00" incLanes="E8_0 -E3_0 E11_0 E2_0" intLanes=":J3_0_0 :J3_1_0 :J3_12_0 :J3_3_0 :J3_4_0 :J3_5_0 :J3_6_0 :J3_7_0 :J3_13_0 :J3_9_0 :J3_10_0 :J3_11_0" shape="34.30,7.20 40.70,7.20 41.14,4.98 41.70,4.20 42.48,3.64 43.48,3.31 44.70,3.20 44.70,-3.20 42.48,-3.64 41.70,-4.20 41.14,-4.98 40.81,-5.98 40.70,-7.20 34.30,-7.20 33.86,-4.98 33.30,-4.20 32.52,-3.64 31.52,-3.31 30.30,-3.20 30.30,3.20 32.52,3.64 33.30,4.20 33.86,4.98 34.19,5.98">
        <request index="0"  response="000000000000" foes="000100010000" cont="0"/>
        <request index="1"  response="000000000000" foes="111100110000" cont="0"/>
        <request index="2"  response="000011000000" foes="110111110000" cont="1"/>
        <request index="3"  response="000010000000" foes="100010000000" cont="0"/>
        <request index="4"  response="000110000111" foes="100110000111" cont="0"/>
        <request index="5"  response="111110000110" foes="111110000110" cont="0"/>
        <request index="6"  response="000000000000" foes="010000000100" cont="0"/>
        <request index="7"  response="000000000000" foes="110000111100" cont="0"/>
        <request index="8"  response="000000000111" foes="110000110111" cont="1"/>
        <request index="9"  response="000000000010" foes="000000100010" cont="0"/>
        <request index="10" response="000111000110" foes="000111100110" cont="0"/>
        <request index="11" response="000110011110" foes="000110111110" cont="0"/>
    </junction>
    <junction id="J4" type="priority" x="50.00" y="0.00" incLanes="-E4_0 E3_0" intLanes=":J4_0_0 :J4_1_0" shape="50.00,3.20 50.00,-3.20 50.00,3.20">
        <request index="0" response="00" foes="00" cont="0"/>
        <request index="1" response="00" foes="00" cont="0"/>
    </junction>
    <junction id="J5" type="priority" x="68.75" y="0.00" incLanes="-E5_0 E4_0" intLanes=":J5_0_0 :J5_1_0" shape="68.75,3.20 68.75,-3.20 68.75,3.20">
        <request index="0" response="00" foes="00" cont="0"/>
        <request index="1" response="00" foes="00" cont="0"/>
    </junction>
    <junction id="J6" type="dead_end" x="75.00" y="0.00" incLanes="E5_0" intLanes="" shape="75.00,0.00 75.00,-3.20 75.00,0.00"/>
    <junction id="J7" type="dead_end" x="37.50" y="37.50" incLanes="-E6_0" intLanes="" shape="37.50,37.50 40.70,37.50 37.50,37.50"/>
    <junction id="J8" type="priority" x="37.50" y="31.25" incLanes="E6_0 -E7_0" intLanes=":J8_0_0 :J8_1_0" shape="34.30,31.25 40.70,31.25 34.30,31.25">
        <request index="0" response="00" foes="00" cont="0"/>
        <request index="1" response="00" foes="00" cont="0"/>
    </junction>
    <junction id="J9" type="priority" x="37.50" y="12.50" incLanes="E7_0 -E8_0" intLanes=":J9_0_0 :J9_1_0" shape="34.30,12.50 40.70,12.50 34.30,12.50">
        <request index="0" response="00" foes="00" cont="0"/>
        <request index="1" response="00" foes="00" cont="0"/>
    </junction>

    <junction id=":J3_12_0" type="internal" x="36.54" y="3.20" incLanes=":J3_2_0 E11_0" intLanes=":J3_4_0 :J3_5_0 :J3_6_0 :J3_7_0 :J3_10_0 :J3_11_0"/>
    <junction id=":J3_13_0" type="internal" x="38.46" y="-3.20" incLanes=":J3_8_0 E8_0" intLanes=":J3_0_0 :J3_1_0 :J3_4_0 :J3_5_0 :J3_10_0 :J3_11_0"/>

    <connection from="-E1" to="-E0" fromLane="0" toLane="0" via=":J1_0_0" dir="s" state="M"/>
    <connection from="-E10" to="-E9" fromLane="0" toLane="0" via=":J11_0_0" dir="s" state="M"/>
    <connection from="-E11" to="-E10" fromLane="0" toLane="0" via=":J12_0_0" dir="s" state="M"/>
    <connection from="-E2" to="-E1" fromLane="0" toLane="0" via=":J2_0_0" dir="s" state="M"/>
    <connection from="-E3" to="-E8" fromLane="0" toLane="0" via=":J3_3_0" dir="r" state="m"/>
    <connection from="-E3" to="-E2" fromLane="0" toLane="0" via=":J3_4_0" dir="s" state="m"/>
    <connection from="-E3" to="-E11" fromLane="0" toLane="0" via=":J3_5_0" dir="l" state="m"/>
    <connection from="-E4" to="-E3" fromLane="0" toLane="0" via=":J4_0_0" dir="s" state="M"/>
    <connection from="-E5" to="-E4" fromLane="0" toLane="0" via=":J5_0_0" dir="s" state="M"/>
    <connection from="-E7" to="-E6" fromLane="0" toLane="0" via=":J8_1_0" dir="s" state="M"/>
    <connection from="-E8" to="-E7" fromLane="0" toLane="0" via=":J9_1_0" dir="s" state="M"/>
    <connection from="E0" to="E1" fromLane="0" toLane="0" via=":J1_1_0" dir="s" state="M"/>
    <connection from="E1" to="E2" fromLane="0" toLane="0" via=":J2_1_0" dir="s" state="M"/>
    <connection from="E10" to="E11" fromLane="0" toLane="0" via=":J12_1_0" dir="s" state="M"/>
    <connection from="E11" to="E3" fromLane="0" toLane="0" via=":J3_6_0" dir="r" state="M"/>
    <connection from="E11" to="-E8" fromLane="0" toLane="0" via=":J3_7_0" dir="s" state="M"/>
    <connection from="E11" to="-E2" fromLane="0" toLane="0" via=":J3_8_0" dir="l" state="m"/>
    <connection from="E2" to="-E11" fromLane="0" toLane="0" via=":J3_9_0" dir="r" state="m"/>
    <connection from="E2" to="E3" fromLane="0" toLane="0" via=":J3_10_0" dir="s" state="m"/>
    <connection from="E2" to="-E8" fromLane="0" toLane="0" via=":J3_11_0" dir="l" state="m"/>
    <connection from="E3" to="E4" fromLane="0" toLane="0" via=":J4_1_0" dir="s" state="M"/>
    <connection from="E4" to="E5" fromLane="0" toLane="0" via=":J5_1_0" dir="s" state="M"/>
    <connection from="E6" to="E7" fromLane="0" toLane="0" via=":J8_0_0" dir="s" state="M"/>
    <connection from="E7" to="E8" fromLane="0" toLane="0" via=":J9_0_0" dir="s" state="M"/>
    <connection from="E8" to="-E2" fromLane="0" toLane="0" via=":J3_0_0" dir="r" state="M"/>
    <connection from="E8" to="-E11" fromLane="0" toLane="0" via=":J3_1_0" dir="s" state="M"/>
    <connection from="E8" to="E3" fromLane="0" toLane="0" via=":J3_2_0" dir="l" state="m"/>
    <connection from="E9" to="E10" fromLane="0" toLane="0" via=":J11_1_0" dir="s" state="M"/>

    <connection from=":J1_0" to="-E0" fromLane="0" toLane="0" dir="s" state="M"/>
    <connection from=":J1_1" to="E1" fromLane="0" toLane="0" dir="s" state="M"/>
    <connection from=":J11_0" to="-E9" fromLane="0" toLane="0" dir="s" state="M"/>
    <connection from=":J11_1" to="E10" fromLane="0" toLane="0" dir="s" state="M"/>
    <connection from=":J12_0" to="-E10" fromLane="0" toLane="0" dir="s" state="M"/>
    <connection from=":J12_1" to="E11" fromLane="0" toLane="0" dir="s" state="M"/>
    <connection from=":J2_0" to="-E1" fromLane="0" toLane="0" dir="s" state="M"/>
    <connection from=":J2_1" to="E2" fromLane="0" toLane="0" dir="s" state="M"/>
    <connection from=":J3_0" to="-E2" fromLane="0" toLane="0" dir="r" state="M"/>
    <connection from=":J3_1" to="-E11" fromLane="0" toLane="0" dir="s" state="M"/>
    <connection from=":J3_2" to="E3" fromLane="0" toLane="0" via=":J3_12_0" dir="l" state="m"/>
    <connection from=":J3_12" to="E3" fromLane="0" toLane="0" dir="l" state="M"/>
    <connection from=":J3_3" to="-E8" fromLane="0" toLane="0" dir="r" state="M"/>
    <connection from=":J3_4" to="-E2" fromLane="0" toLane="0" dir="s" state="M"/>
    <connection from=":J3_5" to="-E11" fromLane="0" toLane="0" dir="l" state="M"/>
    <connection from=":J3_6" to="E3" fromLane="0" toLane="0" dir="r" state="M"/>
    <connection from=":J3_7" to="-E8" fromLane="0" toLane="0" dir="s" state="M"/>
    <connection from=":J3_8" to="-E2" fromLane="0" toLane="0" via=":J3_13_0" dir="l" state="m"/>
    <connection from=":J3_13" to="-E2" fromLane="0" toLane="0" dir="l" state="M"/>
    <connection from=":J3_9" to="-E11" fromLane="0" toLane="0" dir="r" state="M"/>
    <connection from=":J3_10" to="E3" fromLane="0" toLane="0" dir="s" state="M"/>
    <connection from=":J3_11" to="-E8" fromLane="0" toLane="0" dir="l" state="M"/>
    <connection from=":J4_0" to="-E3" fromLane="0" toLane="0" dir="s" state="M"/>
    <connection from=":J4_1" to="E4" fromLane="0" toLane="0" dir="s" state="M"/>
    <connection from=":J5_0" to="-E4" fromLane="0" toLane="0" dir="s" state="M"/>
    <connection from=":J5_1" to="E5" fromLane="0" toLane="0" dir="s" state="M"/>
    <connection from=":J8_0" to="E7" fromLane="0" toLane="0" dir="s" state="M"/>
    <connection from=":J8_1" to="-E6" fromLane="0" toLane="0" dir="s" state="M"/>
    <connection from=":J9_0" to="E8" fromLane="0" toLane="0" dir="s" state="M"/>
    <connection from=":J9_1" to="-E7" fromLane="0" toLane="0" dir="s" state="M"/>

</net>
