<?xml version="1.0" encoding="UTF-8"?>

<!-- generated on 2022-05-02 19:24:37 by Eclipse SUMO netedit Version 1.12.0
<configuration xmlns:xsi="http://www.w3.org/2001/XMLSchema-instance" xsi:noNamespaceSchemaLocation="http://sumo.dlr.de/xsd/netconvertConfiguration.xsd">

    <output>
        <output-file value="/home/nando/Dev/SMARTS/baselines/marl_benchmark/scenarios/custom/merge/merge90_lanes32/map.net.xml"/>
    </output>

    <processing>
        <offset.disable-normalization value="true"/>
    </processing>

    <junctions>
        <no-turnarounds value="true"/>
    </junctions>

    <report>
        <aggregate-warnings value="5"/>
    </report>

</configuration>
-->

<net version="1.9" junctionCornerDetail="5" limitTurnSpeed="5.50" xmlns:xsi="http://www.w3.org/2001/XMLSchema-instance" xsi:noNamespaceSchemaLocation="http://sumo.dlr.de/xsd/net_file.xsd">

    <location netOffset="0.00,0.00" convBoundary="0.00,-6.25,90.62,6.25" origBoundary="10000000000.00,10000000000.00,-10000000000.00,-10000000000.00" projParameter="!"/>

    <edge id=":J1_0" function="internal">
        <lane id=":J1_0_0" index="0" speed="14.95" length="0.10" shape="31.25,-1.60 31.25,-1.60"/>
    </edge>
    <edge id=":J3_0" function="internal">
        <lane id=":J3_0_0" index="0" speed="14.95" length="0.39" shape="30.86,4.65 30.97,4.65 31.05,4.64 31.13,4.63 31.24,4.60"/>
    </edge>
    <edge id=":J5_0" function="internal">
        <lane id=":J5_0_0" index="0" speed="14.95" length="0.39" shape="31.25,-7.85 31.37,-7.85 31.45,-7.84 31.52,-7.83 31.64,-7.80"/>
    </edge>
    <edge id=":J6_0" function="internal">
        <lane id=":J6_0_0" index="0" speed="14.95" length="20.74" shape="39.58,-5.82 43.45,-5.15 47.98,-4.85 53.48,-4.79 60.25,-4.80"/>
    </edge>
    <edge id=":J6_1" function="internal">
        <lane id=":J6_1_0" index="0" speed="14.95" length="21.19" shape="39.06,-1.60 60.25,-1.60"/>
    </edge>
    <edge id=":J6_2" function="internal">
        <lane id=":J6_2_0" index="0" speed="14.95" length="21.19" shape="39.56,2.52 43.44,1.37 47.98,0.01 53.48,-1.13 60.25,-1.60"/>
    </edge>

    <edge id="E0" from="J0" to="J1" priority="-1">
        <lane id="E0_0" index="0" speed="16.00" length="31.25" shape="0.00,-1.60 31.25,-1.60"/>
    </edge>
    <edge id="E1" from="J2" to="J3" priority="-1">
        <lane id="E1_0" index="0" speed="16.00" length="30.86" shape="0.00,4.65 30.86,4.65"/>
    </edge>
    <edge id="E2" from="J4" to="J5" priority="-1">
        <lane id="E2_0" index="0" speed="16.00" length="31.25" shape="0.00,-7.85 31.25,-7.85"/>
    </edge>
    <edge id="E3" from="J1" to="J6" priority="-1">
        <lane id="E3_0" index="0" speed="13.89" length="7.81" shape="31.25,-1.60 39.06,-1.60"/>
    </edge>
    <edge id="E4" from="J3" to="J6" priority="-1">
        <lane id="E4_0" index="0" speed="13.89" length="8.58" shape="31.24,4.60 39.56,2.52"/>
    </edge>
    <edge id="E5" from="J5" to="J6" priority="-1">
        <lane id="E5_0" index="0" speed="13.89" length="8.18" shape="31.64,-7.80 39.58,-5.82"/>
    </edge>
    <edge id="E6" from="J6" to="J7" priority="-1">
        <lane id="E6_0" index="0" speed="16.00" length="30.37" shape="60.25,-4.80 90.62,-4.80"/>
        <lane id="E6_1" index="1" speed="16.00" length="30.37" shape="60.25,-1.60 90.62,-1.60"/>
    </edge>

    <junction id="J0" type="dead_end" x="0.00" y="0.00" incLanes="" intLanes="" shape="0.00,0.00 0.00,-3.20"/>
    <junction id="J1" type="priority" x="31.25" y="0.00" incLanes="E0_0" intLanes=":J1_0_0" shape="31.25,0.00 31.25,-3.20 31.25,0.00">
        <request index="0" response="0" foes="0" cont="0"/>
    </junction>
    <junction id="J2" type="dead_end" x="0.00" y="6.25" incLanes="" intLanes="" shape="0.00,6.25 0.00,3.05"/>
    <junction id="J3" type="priority" x="31.25" y="6.25" incLanes="E1_0" intLanes=":J3_0_0" shape="31.63,6.15 30.86,3.05 30.86,6.25 31.15,6.25 31.25,6.24 31.35,6.22 31.47,6.19">
        <request index="0" response="0" foes="0" cont="0"/>
    </junction>
    <junction id="J4" type="dead_end" x="0.00" y="-6.25" incLanes="" intLanes="" shape="0.00,-6.25 0.00,-9.45"/>
    <junction id="J5" type="priority" x="31.25" y="-6.25" incLanes="E2_0" intLanes=":J5_0_0" shape="31.25,-6.25 32.03,-9.35 31.74,-9.42 31.64,-9.44 31.54,-9.45 31.42,-9.45 31.25,-9.45">
        <request index="0" response="0" foes="0" cont="0"/>
    </junction>
    <junction id="J6" type="priority" x="56.25" y="0.00" incLanes="E5_0 E3_0 E4_0" intLanes=":J6_0_0 :J6_1_0 :J6_2_0" shape="60.25,0.00 60.25,-6.40 55.91,-6.30 52.67,-6.10 49.99,-5.96 47.34,-6.02 44.18,-6.44 39.96,-7.37 39.19,-4.27 39.06,-3.20 39.06,0.00 39.18,0.97 39.95,4.07 44.22,2.90 47.38,1.90 49.98,1.10 52.62,0.50 55.85,0.13">
        <request index="0" response="000" foes="000" cont="0"/>
        <request index="1" response="100" foes="100" cont="0"/>
        <request index="2" response="000" foes="010" cont="0"/>
    </junction>
    <junction id="J7" type="dead_end" x="90.62" y="0.00" incLanes="E6_0 E6_1" intLanes="" shape="90.62,-6.40 90.62,0.00"/>

    <connection from="E0" to="E3" fromLane="0" toLane="0" via=":J1_0_0" dir="s" state="M"/>
    <connection from="E1" to="E4" fromLane="0" toLane="0" via=":J3_0_0" dir="s" state="M"/>
    <connection from="E2" to="E5" fromLane="0" toLane="0" via=":J5_0_0" dir="s" state="M"/>
    <connection from="E3" to="E6" fromLane="0" toLane="1" via=":J6_1_0" dir="s" state="m"/>
    <connection from="E4" to="E6" fromLane="0" toLane="1" via=":J6_2_0" dir="s" state="M"/>
    <connection from="E5" to="E6" fromLane="0" toLane="0" via=":J6_0_0" dir="s" state="M"/>

    <connection from=":J1_0" to="E3" fromLane="0" toLane="0" dir="s" state="M"/>
    <connection from=":J3_0" to="E4" fromLane="0" toLane="0" dir="s" state="M"/>
    <connection from=":J5_0" to="E5" fromLane="0" toLane="0" dir="s" state="M"/>
    <connection from=":J6_0" to="E6" fromLane="0" toLane="0" dir="s" state="M"/>
    <connection from=":J6_1" to="E6" fromLane="0" toLane="1" dir="s" state="M"/>
    <connection from=":J6_2" to="E6" fromLane="0" toLane="1" dir="s" state="M"/>

</net>
