<?xml version="1.0" encoding="UTF-8"?>

<!-- generated on 2022-03-21 10:31:05 by Eclipse SUMO netedit Version 1.12.0
<configuration xmlns:xsi="http://www.w3.org/2001/XMLSchema-instance" xsi:noNamespaceSchemaLocation="http://sumo.dlr.de/xsd/netconvertConfiguration.xsd">

    <output>
        <output-file value="/home/nando/Dev/SMARTS/baselines/marl_benchmark/scenarios/custom/intersection/test2/map.net.xml"/>
    </output>

    <processing>
        <offset.disable-normalization value="true"/>
    </processing>

    <junctions>
        <no-turnarounds value="true"/>
    </junctions>

    <report>
        <aggregate-warnings value="5"/>
    </report>

</configuration>
-->

<net version="1.9" junctionCornerDetail="5" limitTurnSpeed="5.50" xmlns:xsi="http://www.w3.org/2001/XMLSchema-instance" xsi:noNamespaceSchemaLocation="http://sumo.dlr.de/xsd/net_file.xsd">

    <location netOffset="0.00,0.00" convBoundary="-75.00,-12.50,0.00,62.50" origBoundary="10000000000.00,10000000000.00,-10000000000.00,-10000000000.00" projParameter="!"/>

    <edge id=":J1_0" function="internal">
        <lane id=":J1_0_0" index="0" speed="6.51" length="9.03" shape="-39.10,32.20 -39.45,29.75 -40.50,28.00 -42.25,26.95 -44.70,26.60"/>
    </edge>
    <edge id=":J1_1" function="internal">
        <lane id=":J1_1_0" index="0" speed="18.00" length="14.40" shape="-39.10,32.20 -39.10,17.80"/>
    </edge>
    <edge id=":J1_2" function="internal">
        <lane id=":J1_2_0" index="0" speed="8.00" length="4.07" shape="-39.10,32.20 -38.55,28.35 -38.46,28.20"/>
    </edge>
    <edge id=":J1_12" function="internal">
        <lane id=":J1_12_0" index="0" speed="8.00" length="10.13" shape="-38.46,28.20 -36.90,25.60 -34.15,23.95 -30.30,23.40"/>
    </edge>
    <edge id=":J1_3" function="internal">
        <lane id=":J1_3_0" index="0" speed="6.51" length="9.03" shape="-30.30,26.60 -32.75,26.95 -34.50,28.00 -35.55,29.75 -35.90,32.20"/>
    </edge>
    <edge id=":J1_4" function="internal">
        <lane id=":J1_4_0" index="0" speed="18.00" length="14.40" shape="-30.30,26.60 -44.70,26.60"/>
    </edge>
    <edge id=":J1_5" function="internal">
        <lane id=":J1_5_0" index="0" speed="8.00" length="14.19" shape="-30.30,26.60 -34.15,26.05 -36.90,24.40 -38.55,21.65 -39.10,17.80"/>
    </edge>
    <edge id=":J1_6" function="internal">
        <lane id=":J1_6_0" index="0" speed="6.51" length="9.03" shape="-35.90,17.80 -35.55,20.25 -34.50,22.00 -32.75,23.05 -30.30,23.40"/>
    </edge>
    <edge id=":J1_7" function="internal">
        <lane id=":J1_7_0" index="0" speed="18.00" length="14.40" shape="-35.90,17.80 -35.90,32.20"/>
    </edge>
    <edge id=":J1_8" function="internal">
        <lane id=":J1_8_0" index="0" speed="8.00" length="4.07" shape="-35.90,17.80 -36.45,21.65 -36.54,21.80"/>
    </edge>
    <edge id=":J1_13" function="internal">
        <lane id=":J1_13_0" index="0" speed="8.00" length="10.13" shape="-36.54,21.80 -38.10,24.40 -40.85,26.05 -44.70,26.60"/>
    </edge>
    <edge id=":J1_9" function="internal">
        <lane id=":J1_9_0" index="0" speed="6.51" length="9.03" shape="-44.70,23.40 -42.25,23.05 -40.50,22.00 -39.45,20.25 -39.10,17.80"/>
    </edge>
    <edge id=":J1_10" function="internal">
        <lane id=":J1_10_0" index="0" speed="18.00" length="14.40" shape="-44.70,23.40 -30.30,23.40"/>
    </edge>
    <edge id=":J1_11" function="internal">
        <lane id=":J1_11_0" index="0" speed="8.00" length="14.19" shape="-44.70,23.40 -40.85,23.95 -38.10,25.60 -36.45,28.35 -35.90,32.20"/>
    </edge>

    <edge id="-E0" from="J1" to="J0" priority="-1">
        <lane id="-E0_0" index="0" speed="18.00" length="30.30" shape="-44.70,26.60 -75.00,26.60"/>
    </edge>
    <edge id="-E1" from="J2" to="J1" priority="-1">
        <lane id="-E1_0" index="0" speed="18.00" length="30.30" shape="0.00,26.60 -30.30,26.60"/>
    </edge>
    <edge id="-E2" from="J1" to="J3" priority="-1">
        <lane id="-E2_0" index="0" speed="18.00" length="30.30" shape="-35.90,32.20 -35.90,62.50"/>
    </edge>
    <edge id="-E3" from="J1" to="J4" priority="-1">
        <lane id="-E3_0" index="0" speed="18.00" length="30.30" shape="-39.10,17.80 -39.10,-12.50"/>
    </edge>
    <edge id="E0" from="J0" to="J1" priority="-1">
        <lane id="E0_0" index="0" speed="18.00" length="30.30" shape="-75.00,23.40 -44.70,23.40"/>
    </edge>
    <edge id="E1" from="J1" to="J2" priority="-1">
        <lane id="E1_0" index="0" speed="18.00" length="30.30" shape="-30.30,23.40 0.00,23.40"/>
    </edge>
    <edge id="E2" from="J3" to="J1" priority="-1">
        <lane id="E2_0" index="0" speed="18.00" length="30.30" shape="-39.10,62.50 -39.10,32.20"/>
    </edge>
    <edge id="E3" from="J4" to="J1" priority="-1">
        <lane id="E3_0" index="0" speed="18.00" length="30.30" shape="-35.90,-12.50 -35.90,17.80"/>
    </edge>

    <junction id="J0" type="dead_end" x="-75.00" y="25.00" incLanes="-E0_0" intLanes="" shape="-75.00,25.00 -75.00,28.20 -75.00,25.00"/>
    <junction id="J1" type="priority" x="-37.50" y="25.00" incLanes="E2_0 -E1_0 E3_0 E0_0" intLanes=":J1_0_0 :J1_1_0 :J1_12_0 :J1_3_0 :J1_4_0 :J1_5_0 :J1_6_0 :J1_7_0 :J1_13_0 :J1_9_0 :J1_10_0 :J1_11_0" shape="-40.70,32.20 -34.30,32.20 -33.86,29.98 -33.30,29.20 -32.52,28.64 -31.52,28.31 -30.30,28.20 -30.30,21.80 -32.52,21.36 -33.30,20.80 -33.86,20.02 -34.19,19.02 -34.30,17.80 -40.70,17.80 -41.14,20.02 -41.70,20.80 -42.48,21.36 -43.48,21.69 -44.70,21.80 -44.70,28.20 -42.48,28.64 -41.70,29.20 -41.14,29.98 -40.81,30.98">
        <request index="0"  response="000000000000" foes="000100010000" cont="0"/>
        <request index="1"  response="000000000000" foes="111100110000" cont="0"/>
        <request index="2"  response="000111000000" foes="110111110000" cont="1"/>
        <request index="3"  response="000010000000" foes="100010000000" cont="0"/>
        <request index="4"  response="000110000111" foes="100110000111" cont="0"/>
        <request index="5"  response="111110000110" foes="111110000110" cont="0"/>
        <request index="6"  response="000000000000" foes="010000000100" cont="0"/>
        <request index="7"  response="000000000000" foes="110000111100" cont="0"/>
        <request index="8"  response="000000000011" foes="110000110111" cont="1"/>
        <request index="9"  response="000000000010" foes="000000100010" cont="0"/>
        <request index="10" response="000111000110" foes="000111100110" cont="0"/>
        <request index="11" response="000110011110" foes="000110111110" cont="0"/>
    </junction>
    <junction id="J2" type="dead_end" x="0.00" y="25.00" incLanes="E1_0" intLanes="" shape="0.00,25.00 0.00,21.80 0.00,25.00"/>
    <junction id="J3" type="dead_end" x="-37.50" y="62.50" incLanes="-E2_0" intLanes="" shape="-37.50,62.50 -34.30,62.50 -37.50,62.50"/>
    <junction id="J4" type="dead_end" x="-37.50" y="-12.50" incLanes="-E3_0" intLanes="" shape="-37.50,-12.50 -40.70,-12.50 -37.50,-12.50"/>

    <junction id=":J1_12_0" type="internal" x="-38.46" y="28.20" incLanes=":J1_2_0 E3_0" intLanes=":J1_4_0 :J1_5_0 :J1_6_0 :J1_7_0 :J1_10_0 :J1_11_0"/>
    <junction id=":J1_13_0" type="internal" x="-36.54" y="21.80" incLanes=":J1_8_0 E2_0" intLanes=":J1_0_0 :J1_1_0 :J1_4_0 :J1_5_0 :J1_10_0 :J1_11_0"/>

    <connection from="-E1" to="-E2" fromLane="0" toLane="0" via=":J1_3_0" dir="r" state="m"/>
    <connection from="-E1" to="-E0" fromLane="0" toLane="0" via=":J1_4_0" dir="s" state="m"/>
    <connection from="-E1" to="-E3" fromLane="0" toLane="0" via=":J1_5_0" dir="l" state="m"/>
    <connection from="E0" to="-E3" fromLane="0" toLane="0" via=":J1_9_0" dir="r" state="m"/>
    <connection from="E0" to="E1" fromLane="0" toLane="0" via=":J1_10_0" dir="s" state="m"/>
    <connection from="E0" to="-E2" fromLane="0" toLane="0" via=":J1_11_0" dir="l" state="m"/>
    <connection from="E2" to="-E0" fromLane="0" toLane="0" via=":J1_0_0" dir="r" state="M"/>
    <connection from="E2" to="-E3" fromLane="0" toLane="0" via=":J1_1_0" dir="s" state="M"/>
    <connection from="E2" to="E1" fromLane="0" toLane="0" via=":J1_2_0" dir="l" state="m"/>
    <connection from="E3" to="E1" fromLane="0" toLane="0" via=":J1_6_0" dir="r" state="M"/>
    <connection from="E3" to="-E2" fromLane="0" toLane="0" via=":J1_7_0" dir="s" state="M"/>
    <connection from="E3" to="-E0" fromLane="0" toLane="0" via=":J1_8_0" dir="l" state="m"/>

    <connection from=":J1_0" to="-E0" fromLane="0" toLane="0" dir="r" state="M"/>
    <connection from=":J1_1" to="-E3" fromLane="0" toLane="0" dir="s" state="M"/>
    <connection from=":J1_2" to="E1" fromLane="0" toLane="0" via=":J1_12_0" dir="l" state="m"/>
    <connection from=":J1_12" to="E1" fromLane="0" toLane="0" dir="l" state="M"/>
    <connection from=":J1_3" to="-E2" fromLane="0" toLane="0" dir="r" state="M"/>
    <connection from=":J1_4" to="-E0" fromLane="0" toLane="0" dir="s" state="M"/>
    <connection from=":J1_5" to="-E3" fromLane="0" toLane="0" dir="l" state="M"/>
    <connection from=":J1_6" to="E1" fromLane="0" toLane="0" dir="r" state="M"/>
    <connection from=":J1_7" to="-E2" fromLane="0" toLane="0" dir="s" state="M"/>
    <connection from=":J1_8" to="-E0" fromLane="0" toLane="0" via=":J1_13_0" dir="l" state="m"/>
    <connection from=":J1_13" to="-E0" fromLane="0" toLane="0" dir="l" state="M"/>
    <connection from=":J1_9" to="-E3" fromLane="0" toLane="0" dir="r" state="M"/>
    <connection from=":J1_10" to="E1" fromLane="0" toLane="0" dir="s" state="M"/>
    <connection from=":J1_11" to="-E2" fromLane="0" toLane="0" dir="l" state="M"/>

</net>
