<?xml version="1.0" encoding="UTF-8"?>

<!-- generated on 2022-03-26 10:49:37 by Eclipse SUMO netedit Version 1.12.0
<configuration xmlns:xsi="http://www.w3.org/2001/XMLSchema-instance" xsi:noNamespaceSchemaLocation="http://sumo.dlr.de/xsd/netconvertConfiguration.xsd">

    <input>
        <sumo-net-file value="/home/nando/Dev/SMARTS/baselines/marl_benchmark/scenarios/custom/merge100_lanes2_3/map.net.xml"/>
    </input>

    <output>
        <output-file value="/home/nando/Dev/SMARTS/baselines/marl_benchmark/scenarios/custom/merge100_lanes2_3/map.net.xml"/>
    </output>

    <processing>
        <geometry.min-radius.fix.railways value="false"/>
        <geometry.max-grade.fix value="false"/>
        <offset.disable-normalization value="true"/>
        <lefthand value="false"/>
    </processing>

    <junctions>
        <no-turnarounds value="true"/>
        <junctions.corner-detail value="5"/>
        <junctions.limit-turn-speed value="5.5"/>
        <rectangular-lane-cut value="false"/>
    </junctions>

    <pedestrian>
        <walkingareas value="false"/>
    </pedestrian>

    <report>
        <aggregate-warnings value="5"/>
    </report>

</configuration>
-->

<net version="1.9" junctionCornerDetail="5" limitTurnSpeed="5.50" xmlns:xsi="http://www.w3.org/2001/XMLSchema-instance" xsi:noNamespaceSchemaLocation="http://sumo.dlr.de/xsd/net_file.xsd">

    <location netOffset="0.00,0.00" convBoundary="0.00,-3.12,100.00,12.50" origBoundary="-10000000000.00,-10000000000.00,10000000000.00,10000000000.00" projParameter="!"/>

    <edge id=":J0_0" function="internal">
        <lane id=":J0_0_0" index="0" speed="16.00" length="12.09" shape="42.71,-2.76 45.64,-1.05 47.64,0.28 49.75,1.14 53.01,1.45"/>
        <lane id=":J0_0_1" index="1" speed="16.00" length="12.09" shape="41.28,0.10 44.60,2.00 46.90,3.43 49.31,4.33 53.01,4.65"/>
    </edge>
    <edge id=":J0_2" function="internal">
        <lane id=":J0_2_0" index="0" speed="16.00" length="11.92" shape="40.99,4.19 44.47,2.94 46.88,2.09 49.35,1.60 53.01,1.45"/>
        <lane id=":J0_2_1" index="1" speed="16.00" length="11.92" shape="42.00,7.23 45.19,6.07 47.40,5.27 49.66,4.80 53.01,4.65"/>
    </edge>
    <edge id=":J2_0" function="internal">
        <lane id=":J2_0_0" index="0" speed="8.09" length="1.49" shape="31.25,-7.93 31.91,-7.92 32.37,-7.86 32.80,-7.71 33.40,-7.42"/>
        <lane id=":J2_0_1" index="1" speed="16.00" length="1.49" shape="31.25,-4.72 31.47,-4.72 31.62,-4.70 31.77,-4.65 31.97,-4.56"/>
    </edge>
    <edge id=":J4_0" function="internal">
        <lane id=":J4_0_0" index="0" speed="16.00" length="0.10" shape="6.25,-7.93 6.25,-7.93"/>
        <lane id=":J4_0_1" index="1" speed="16.00" length="0.10" shape="6.25,-4.72 6.25,-4.73"/>
    </edge>
    <edge id=":J5_0" function="internal">
        <lane id=":J5_0_0" index="0" speed="16.00" length="0.10" shape="25.00,-7.93 25.00,-7.93"/>
        <lane id=":J5_0_1" index="1" speed="16.00" length="0.10" shape="25.00,-4.73 25.00,-4.72"/>
    </edge>
    <edge id=":J6_0" function="internal">
        <lane id=":J6_0_0" index="0" speed="16.00" length="1.03" shape="30.21,7.70 30.36,7.70 30.47,7.69 30.57,7.66 30.72,7.62"/>
        <lane id=":J6_0_1" index="1" speed="12.11" length="1.03" shape="30.21,10.90 30.67,10.90 30.99,10.87 31.29,10.79 31.73,10.65"/>
    </edge>
    <edge id=":J8_0" function="internal">
        <lane id=":J8_0_0" index="0" speed="16.00" length="0.10" shape="6.25,7.70 6.25,7.70"/>
        <lane id=":J8_0_1" index="1" speed="16.00" length="0.10" shape="6.25,10.90 6.25,10.90"/>
    </edge>
    <edge id=":J9_0" function="internal">
        <lane id=":J9_0_0" index="0" speed="16.00" length="0.10" shape="25.00,7.70 25.00,7.70"/>
        <lane id=":J9_0_1" index="1" speed="16.00" length="0.10" shape="25.00,10.90 25.00,10.90"/>
    </edge>

    <edge id="E0" from="J0" to="J1" priority="-1">
        <lane id="E0_0" index="0" speed="16.00" length="46.99" shape="53.01,1.45 100.00,1.45"/>
        <lane id="E0_1" index="1" speed="16.00" length="46.99" shape="53.01,4.65 100.00,4.65"/>
    </edge>
    <edge id="E1" from="J2" to="J0" priority="-1">
        <lane id="E1_0" index="0" speed="16.00" length="10.41" shape="33.40,-7.42 42.71,-2.76"/>
        <lane id="E1_1" index="1" speed="16.00" length="10.41" shape="31.97,-4.56 41.28,0.10"/>
    </edge>
    <edge id="E2" from="J3" to="J4" priority="-1">
        <lane id="E2_0" index="0" speed="16.00" length="6.25" shape="0.00,-7.93 6.25,-7.93"/>
        <lane id="E2_1" index="1" speed="16.00" length="6.25" shape="0.00,-4.72 6.25,-4.72"/>
    </edge>
    <edge id="E3" from="J4" to="J5" priority="-1">
        <lane id="E3_0" index="0" speed="16.00" length="18.75" shape="6.25,-7.93 25.00,-7.93"/>
        <lane id="E3_1" index="1" speed="16.00" length="18.75" shape="6.25,-4.73 25.00,-4.73"/>
    </edge>
    <edge id="E4" from="J5" to="J2" priority="-1">
        <lane id="E4_0" index="0" speed="16.00" length="6.25" shape="25.00,-7.93 31.25,-7.93"/>
        <lane id="E4_1" index="1" speed="16.00" length="6.25" shape="25.00,-4.72 31.25,-4.72"/>
    </edge>
    <edge id="E5" from="J6" to="J0" priority="-1">
        <lane id="E5_0" index="0" speed="16.00" length="10.83" shape="30.72,7.62 40.99,4.19"/>
        <lane id="E5_1" index="1" speed="16.00" length="10.83" shape="31.73,10.65 42.00,7.23"/>
    </edge>
    <edge id="E6" from="J7" to="J8" priority="-1">
        <lane id="E6_0" index="0" speed="16.00" length="6.25" shape="0.00,7.70 6.25,7.70"/>
        <lane id="E6_1" index="1" speed="16.00" length="6.25" shape="0.00,10.90 6.25,10.90"/>
    </edge>
    <edge id="E7" from="J8" to="J9" priority="-1">
        <lane id="E7_0" index="0" speed="16.00" length="18.75" shape="6.25,7.70 25.00,7.70"/>
        <lane id="E7_1" index="1" speed="16.00" length="18.75" shape="6.25,10.90 25.00,10.90"/>
    </edge>
    <edge id="E8" from="J9" to="J6" priority="-1">
        <lane id="E8_0" index="0" speed="16.00" length="5.21" shape="25.00,7.70 30.21,7.70"/>
        <lane id="E8_1" index="1" speed="16.00" length="5.21" shape="25.00,10.90 30.21,10.90"/>
    </edge>

    <junction id="J0" type="priority" x="50.00" y="6.25" incLanes="E1_0 E1_1 E5_0 E5_1" intLanes=":J0_0_0 :J0_0_1 :J0_2_0 :J0_2_1" shape="53.01,6.25 53.01,-0.15 50.82,-0.29 49.25,-0.68 48.01,-1.30 45.39,-3.09 43.43,-4.19 40.56,1.53 41.15,1.96 41.21,2.15 41.12,2.34 40.88,2.51 40.48,2.68 42.51,8.75 44.69,7.97 46.31,7.34 47.65,6.86 49.03,6.52 50.71,6.32">
        <request index="0" response="0000" foes="1100" cont="0"/>
        <request index="1" response="0000" foes="1100" cont="0"/>
        <request index="2" response="0011" foes="0011" cont="0"/>
        <request index="3" response="0011" foes="0011" cont="0"/>
    </junction>
    <junction id="J1" type="dead_end" x="100.00" y="6.25" incLanes="E0_0 E0_1" intLanes="" shape="100.00,-0.15 100.00,6.25"/>
    <junction id="J2" type="priority" x="31.25" y="-3.12" incLanes="E4_0 E4_1" intLanes=":J2_0_0 :J2_0_1" shape="31.25,-3.12 34.11,-8.85 33.11,-9.32 32.74,-9.43 32.35,-9.50 31.88,-9.52 31.25,-9.53">
        <request index="0" response="00" foes="00" cont="0"/>
        <request index="1" response="00" foes="00" cont="0"/>
    </junction>
    <junction id="J3" type="dead_end" x="0.00" y="-3.12" incLanes="" intLanes="" shape="0.00,-3.12 0.00,-9.53"/>
    <junction id="J4" type="priority" x="6.25" y="-3.12" incLanes="E2_0 E2_1" intLanes=":J4_0_0 :J4_0_1" shape="6.25,-3.12 6.25,-9.53 6.25,-3.12">
        <request index="0" response="00" foes="00" cont="0"/>
        <request index="1" response="00" foes="00" cont="0"/>
    </junction>
    <junction id="J5" type="priority" x="25.00" y="-3.12" incLanes="E3_0 E3_1" intLanes=":J5_0_0 :J5_0_1" shape="25.00,-3.12 25.00,-9.53 25.00,-3.12">
        <request index="0" response="00" foes="00" cont="0"/>
        <request index="1" response="00" foes="00" cont="0"/>
    </junction>
    <junction id="J6" type="priority" x="31.25" y="12.50" incLanes="E8_0 E8_1" intLanes=":J6_0_0 :J6_0_1" shape="32.24,12.17 30.21,6.10 30.21,12.50 30.98,12.49 31.24,12.46 31.51,12.40 31.82,12.31">
        <request index="0" response="00" foes="00" cont="0"/>
        <request index="1" response="00" foes="00" cont="0"/>
    </junction>
    <junction id="J7" type="dead_end" x="0.00" y="12.50" incLanes="" intLanes="" shape="0.00,12.50 0.00,6.10"/>
    <junction id="J8" type="priority" x="6.25" y="12.50" incLanes="E6_0 E6_1" intLanes=":J8_0_0 :J8_0_1" shape="6.25,12.50 6.25,6.10 6.25,12.50">
        <request index="0" response="00" foes="00" cont="0"/>
        <request index="1" response="00" foes="00" cont="0"/>
    </junction>
    <junction id="J9" type="priority" x="25.00" y="12.50" incLanes="E7_0 E7_1" intLanes=":J9_0_0 :J9_0_1" shape="25.00,12.50 25.00,6.10 25.00,12.50">
        <request index="0" response="00" foes="00" cont="0"/>
        <request index="1" response="00" foes="00" cont="0"/>
    </junction>

    <connection from="E1" to="E0" fromLane="0" toLane="0" via=":J0_0_0" dir="s" state="M"/>
    <connection from="E1" to="E0" fromLane="1" toLane="1" via=":J0_0_1" dir="s" state="M"/>
    <connection from="E2" to="E3" fromLane="0" toLane="0" via=":J4_0_0" dir="s" state="M"/>
    <connection from="E2" to="E3" fromLane="1" toLane="1" via=":J4_0_1" dir="s" state="M"/>
    <connection from="E3" to="E4" fromLane="0" toLane="0" via=":J5_0_0" dir="s" state="M"/>
    <connection from="E3" to="E4" fromLane="1" toLane="1" via=":J5_0_1" dir="s" state="M"/>
    <connection from="E4" to="E1" fromLane="0" toLane="0" via=":J2_0_0" dir="s" state="M"/>
    <connection from="E4" to="E1" fromLane="1" toLane="1" via=":J2_0_1" dir="s" state="M"/>
    <connection from="E5" to="E0" fromLane="0" toLane="0" via=":J0_2_0" dir="s" state="m"/>
    <connection from="E5" to="E0" fromLane="1" toLane="1" via=":J0_2_1" dir="s" state="m"/>
    <connection from="E6" to="E7" fromLane="0" toLane="0" via=":J8_0_0" dir="s" state="M"/>
    <connection from="E6" to="E7" fromLane="1" toLane="1" via=":J8_0_1" dir="s" state="M"/>
    <connection from="E7" to="E8" fromLane="0" toLane="0" via=":J9_0_0" dir="s" state="M"/>
    <connection from="E7" to="E8" fromLane="1" toLane="1" via=":J9_0_1" dir="s" state="M"/>
    <connection from="E8" to="E5" fromLane="0" toLane="0" via=":J6_0_0" dir="s" state="M"/>
    <connection from="E8" to="E5" fromLane="1" toLane="1" via=":J6_0_1" dir="s" state="M"/>

    <connection from=":J0_0" to="E0" fromLane="0" toLane="0" dir="s" state="M"/>
    <connection from=":J0_0" to="E0" fromLane="1" toLane="1" dir="s" state="M"/>
    <connection from=":J0_2" to="E0" fromLane="0" toLane="0" dir="s" state="M"/>
    <connection from=":J0_2" to="E0" fromLane="1" toLane="1" dir="s" state="M"/>
    <connection from=":J2_0" to="E1" fromLane="0" toLane="0" dir="s" state="M"/>
    <connection from=":J2_0" to="E1" fromLane="1" toLane="1" dir="s" state="M"/>
    <connection from=":J4_0" to="E3" fromLane="0" toLane="0" dir="s" state="M"/>
    <connection from=":J4_0" to="E3" fromLane="1" toLane="1" dir="s" state="M"/>
    <connection from=":J5_0" to="E4" fromLane="0" toLane="0" dir="s" state="M"/>
    <connection from=":J5_0" to="E4" fromLane="1" toLane="1" dir="s" state="M"/>
    <connection from=":J6_0" to="E5" fromLane="0" toLane="0" dir="s" state="M"/>
    <connection from=":J6_0" to="E5" fromLane="1" toLane="1" dir="s" state="M"/>
    <connection from=":J8_0" to="E7" fromLane="0" toLane="0" dir="s" state="M"/>
    <connection from=":J8_0" to="E7" fromLane="1" toLane="1" dir="s" state="M"/>
    <connection from=":J9_0" to="E8" fromLane="0" toLane="0" dir="s" state="M"/>
    <connection from=":J9_0" to="E8" fromLane="1" toLane="1" dir="s" state="M"/>

</net>
